                             MODFLOW 6 PROFESSIONAL
                U.S. GEOLOGICAL SURVEY MODULAR HYDROLOGIC MODEL
                  VERSION 6.5.0.dev0 (preliminary) 07/13/2023
                               ***DEVELOP MODE***

        MODFLOW 6 compiled Oct 30 2023 08:23:02 with GCC version 11.3.0

This software is preliminary or provisional and is subject to 
revision. It is being provided to meet the need for timely best 
science. The software has not received final approval by the U.S. 
Geological Survey (USGS). No warranty, expressed or implied, is made 
by the USGS or the U.S. Government as to the functionality of the 
software and related material nor shall the fact of release 
constitute any such warranty. The software is provided on the 
condition that neither the USGS nor the U.S. Government shall be held 
liable for any damages resulting from the authorized or unauthorized 
use of the software.


As a work of the United States Government, this USGS product is 
in the public domain within the United States. You can copy, 
modify, distribute, and perform the work, even for commercial 
purposes, all without asking permission. Additionally, USGS 
waives copyright and related rights in the work worldwide 
through CC0 1.0 Universal Public Domain Dedication 
(https://creativecommons.org/publicdomain/zero/1.0/).

The following GNU Lesser General Public License (LGPL) libraries
are used in this USGS product:

    SPARSKIT version 2.0
      ilut, luson, and qsplit 
      (https://www-users.cse.umn.edu/~saad/software/SPARSKIT/)

    RCM - Reverse Cuthill McKee Ordering
      (https://people.math.sc.edu/Burkardt/f_src/rcm/rcm.html)

    BLAS - Basic Linear Algebra Subprograms Level 1
      (https://people.math.sc.edu/Burkardt/f_src/blas1_d/blas1_d.html)

    SPARSEKIT - Sparse Matrix Utility Package
      amux, dperm, dvperm, rperm, and cperm
      (https://people.sc.fsu.edu/~jburkardt/f77_src/sparsekit/sparsekit.html)

The following BSD-3 License libraries are used in this USGS product:

    Modern Fortran DAG Library
      Copyright (c) 2018, Jacob Williams
      All rights reserved.
      (https://github.com/jacobwilliams/daglib)

The following 2-clause BSD License library is used in this
USGS product:

    PETSc, the Portable, Extensible Toolkit for Scientific
    Computation Library
      Copyright (c) 1991-2021, UChicago Argonne, LLC
      and the PETSc Development Team All rights reserved.
      (https://petsc.org/release/)

MODFLOW 6 compiler options: -cpp -I src/libmf6core.a.p -I src -I ../src -I
src/libmf6_external.a.p -I
/home/mreno/.clone/external/petsc/arch-linux-c-debug/include -I
/home/mreno/.clone/external/petsc/include -I
/home/mreno/.clone/external/petsc/arch-linux-c-debug/lib -I
/home/mreno/miniconda3/envs/modflow6/include -I -fdiagnostics-color=always
-imultiarch x86_64-linux-gnu -D _FILE_OFFSET_BITS=64 -D __linux__ -D
__WITH_PETSC__ -D __WITH_MPI__ -D __WITH_NETCDF__ -mtune=generic
-march=x86-64 -g -O2 -Wall -Wpedantic -Wcharacter-truncation
-Wno-unused-dummy-argument -Wno-intrinsic-shadow -Wno-maybe-uninitialized
-Wno-uninitialized -std=f2008 -fall-intrinsics -fbacktrace -fcheck=all
-ffpe-trap=overflow,zero,invalid -ffpe-summary=overflow
-ffpe-trap=overflow,zero,invalid -fPIC -J src/libmf6core.a.p
-fpre-include=/usr/include/finclude/math-vector-fortran.h

System command used to initiate simulation:
/home/mreno/.clone/usgs/w/netcdf/2/modflow6/bin/mf6 -p

MODFLOW was compiled using uniform precision.

Real Variables
  KIND: 8
  TINY (smallest non-zero value):    2.225074-308
  HUGE (largest value):    1.797693+308
  PRECISION: 15
  SIZE IN BITS: 64

Integer Variables
  KIND: 4
  HUGE (largest value): 2147483647
  SIZE IN BITS: 32

Long Integer Variables
  KIND: 8
  HUGE (largest value): 9223372036854775807
  SIZE IN BITS: 64

Logical Variables
  KIND: 4
  SIZE IN BITS: 32


 OPENED mfsim.nam
 FILE TYPE:NAM6      UNIT 1001   STATUS:OLD                 
 FORMAT:FORMATTED              ACCESS:SEQUENTIAL          
 ACTION:READ                

 # File generated by Flopy version 3.5.0.dev0 on 10/30/2023 at 09:15:35.

 OPENED rightmodel.nam
 FILE TYPE:GWF6      UNIT 1002   STATUS:OLD                 
 FORMAT:FORMATTED              ACCESS:SEQUENTIAL          
 ACTION:READ                

 # File generated by Flopy version 3.5.0.dev0 on 10/30/2023 at 09:15:35.
Model NetCDF4 Input "rightmodel.nc" opened NF90_NOWRITE, ncid=65536
IDM nc modeltype=GWF6
IDM load netcdf var model=GWF6, ptype=DIS6
IDM nc4_context pkg cname=RIGHTMODEL, scname=DIS
IDM load nc model ctype=GWF
IDM load netcdf var model=GWF6, ptype=DIS6, sctype=DIS
Input parameter "XORIGIN" discovered for package "RIGHTMODEL/DIS".
IDM load netcdf var model=GWF6, ptype=DIS6
IDM nc4_context pkg cname=RIGHTMODEL, scname=DIS
IDM load nc model ctype=GWF
IDM load netcdf var model=GWF6, ptype=DIS6, sctype=DIS
Input parameter "YORIGIN" discovered for package "RIGHTMODEL/DIS".
IDM load netcdf var model=GWF6, ptype=DIS6
IDM nc4_context pkg cname=RIGHTMODEL, scname=DIS
IDM load nc model ctype=GWF
IDM load netcdf var model=GWF6, ptype=DIS6, sctype=DIS
Input parameter "NLAY" discovered for package "RIGHTMODEL/DIS".
IDM load netcdf var model=GWF6, ptype=DIS6
IDM nc4_context pkg cname=RIGHTMODEL, scname=DIS
IDM load nc model ctype=GWF
IDM load netcdf var model=GWF6, ptype=DIS6, sctype=DIS
Input parameter "NROW" discovered for package "RIGHTMODEL/DIS".
IDM load netcdf var model=GWF6, ptype=DIS6
IDM nc4_context pkg cname=RIGHTMODEL, scname=DIS
IDM load nc model ctype=GWF
IDM load netcdf var model=GWF6, ptype=DIS6, sctype=DIS
Input parameter "NCOL" discovered for package "RIGHTMODEL/DIS".
IDM load netcdf var model=GWF6, ptype=DIS6
IDM nc4_context pkg cname=RIGHTMODEL, scname=DIS
IDM load nc model ctype=GWF
IDM load netcdf var model=GWF6, ptype=DIS6, sctype=DIS
Input parameter "DELR" discovered for package "RIGHTMODEL/DIS".
IDM load netcdf var model=GWF6, ptype=DIS6
IDM nc4_context pkg cname=RIGHTMODEL, scname=DIS
IDM load nc model ctype=GWF
IDM load netcdf var model=GWF6, ptype=DIS6, sctype=DIS
Input parameter "DELC" discovered for package "RIGHTMODEL/DIS".
IDM load netcdf var model=GWF6, ptype=DIS6
IDM nc4_context pkg cname=RIGHTMODEL, scname=DIS
IDM load nc model ctype=GWF
IDM load netcdf var model=GWF6, ptype=DIS6, sctype=DIS
Input parameter "TOP" discovered for package "RIGHTMODEL/DIS".
IDM load netcdf var model=GWF6, ptype=DIS6
IDM nc4_context pkg cname=RIGHTMODEL, scname=DIS
IDM load nc model ctype=GWF
IDM load netcdf var model=GWF6, ptype=DIS6, sctype=DIS
Input parameter "BOTM" discovered for package "RIGHTMODEL/DIS".
IDM load netcdf var model=GWF6, ptype=NPF6
IDM nc4_context pkg cname=RIGHTMODEL, scname=DIS
IDM nc4_context pkg cname=RIGHTMODEL, scname=NPF
IDM load nc model ctype=GWF
IDM load netcdf var model=GWF6, ptype=NPF6, sctype=NPF
Input parameter "SAVE_FLOWS" discovered for package "RIGHTMODEL/NPF".
IDM load netcdf var model=GWF6, ptype=NPF6
IDM nc4_context pkg cname=RIGHTMODEL, scname=DIS
IDM nc4_context pkg cname=RIGHTMODEL, scname=NPF
IDM load nc model ctype=GWF
IDM load netcdf var model=GWF6, ptype=NPF6, sctype=NPF
Input parameter "SAVE_SPECIFIC_DISCHARGE" discovered for package "RIGHTMODEL/NPF".
IDM load netcdf var model=GWF6, ptype=NPF6
IDM nc4_context pkg cname=RIGHTMODEL, scname=DIS
IDM nc4_context pkg cname=RIGHTMODEL, scname=NPF
IDM load nc model ctype=GWF
IDM load netcdf var model=GWF6, ptype=NPF6, sctype=NPF
Input parameter "ICELLTYPE" discovered for package "RIGHTMODEL/NPF".
IDM load netcdf var model=GWF6, ptype=NPF6
IDM nc4_context pkg cname=RIGHTMODEL, scname=DIS
IDM nc4_context pkg cname=RIGHTMODEL, scname=NPF
IDM load nc model ctype=GWF
IDM load netcdf var model=GWF6, ptype=NPF6, sctype=NPF
Input parameter "K" discovered for package "RIGHTMODEL/NPF".
IDM load netcdf var model=GWF6, ptype=CHD6
IDM nc4_context pkg cname=RIGHTMODEL, scname=DIS
IDM nc4_context pkg cname=RIGHTMODEL, scname=NPF
IDM nc4_context pkg cname=RIGHTMODEL, scname=CHD_0
IDM load nc model ctype=GWF
IDM load netcdf var model=GWF6, ptype=CHD6, sctype=CHD
Input parameter "MAXBOUND" discovered for package "RIGHTMODEL/CHD_0".
IDM load netcdf var model=GWF6, ptype=CHD6
IDM nc4_context pkg cname=RIGHTMODEL, scname=DIS
IDM nc4_context pkg cname=RIGHTMODEL, scname=NPF
IDM nc4_context pkg cname=RIGHTMODEL, scname=CHD_0
IDM load nc model ctype=GWF
IDM load netcdf var model=GWF6, ptype=CHD6
IDM nc4_context pkg cname=RIGHTMODEL, scname=DIS
IDM nc4_context pkg cname=RIGHTMODEL, scname=NPF
IDM nc4_context pkg cname=RIGHTMODEL, scname=CHD_0
IDM load nc model ctype=GWF
IDM load netcdf var model=GWF6, ptype=CHD6, sctype=CHD
Input parameter "CELLID" discovered for package "RIGHTMODEL/CHD_0".
IDM load netcdf var model=GWF6, ptype=CHD6
IDM nc4_context pkg cname=RIGHTMODEL, scname=DIS
IDM nc4_context pkg cname=RIGHTMODEL, scname=NPF
IDM nc4_context pkg cname=RIGHTMODEL, scname=CHD_0
IDM load nc model ctype=GWF
IDM load netcdf var model=GWF6, ptype=CHD6, sctype=CHD
Input parameter "HEAD" discovered for package "RIGHTMODEL/CHD_0".
IDM input_load pkg=DIS
IDM NF90_MAX_DIMS=1024
IDM NF90_MAX_VAR_DIMS=1024
varname=XORIGIN, type=DOUBLE
varname=YORIGIN, type=DOUBLE
varname=NLAY, type=INTEGER
varname=NROW, type=INTEGER
varname=NCOL, type=INTEGER
varname=DELR, type=DOUBLE1D
varname=DELC, type=DOUBLE1D
varname=TOP, type=DOUBLE2D
varname=BOTM, type=DOUBLE3D
    ALL SIMULATION MEMORY INFORMATION WILL BE WRITTEN.

 DETAILED INFORMATION ON VARIABLES STORED IN THE MEMORY MANAGER
 -----------------------------------------------------------------------------------------------------------------------------------------------------------------------------
 ORIGIN                                             VARIABLE NAME    DATA TYPE             NUMBER OF ITEMS ASSOCIATED VARIABLE                                                
 -----------------------------------------------------------------------------------------------------------------------------------------------------------------------------
 __INPUT__/SIM/NAM                                  TDIS6            STRING LEN=300                      1 --                                                                 
 __INPUT__/SIM/NAM                                  MTYPE            STRING LEN=300                      2 --                                                                 
 __INPUT__/SIM/NAM                                  MFNAME           STRING LEN=300                      2 --                                                                 
 __INPUT__/SIM/NAM                                  MNAME            STRING LEN=300                      2 --                                                                 
 __INPUT__/SIM/NAM                                  EXGTYPE          STRING LEN=300                      1 --                                                                 
 __INPUT__/SIM/NAM                                  EXGFILE          STRING LEN=300                      1 --                                                                 
 __INPUT__/SIM/NAM                                  EXGMNAMEA        STRING LEN=300                      1 --                                                                 
 __INPUT__/SIM/NAM                                  EXGMNAMEB        STRING LEN=300                      1 --                                                                 
 __INPUT__/SIM/NAM                                  SOLUTIONGROUPNUM INTEGER                             1 --                                                                 
 __INPUT__/SIM/NAM                                  SLNTYPE          STRING LEN=300                      1 --                                                                 
 __INPUT__/SIM/NAM                                  SLNFNAME         STRING LEN=300                      1 --                                                                 
 __INPUT__/SIM/NAM                                  SLNMNAMES        STRING LEN=300                      1 --                                                                 
 __INPUT__/SIM/NAM                                  CONTINUE         INTEGER                             1 --                                                                 
 __INPUT__/SIM/NAM                                  NOCHECK          INTEGER                             1 --                                                                 
 __INPUT__/SIM/NAM                                  PRMEM            STRING LEN=300                      1 --                                                                 
 __INPUT__/SIM/NAM                                  MAXERRORS        INTEGER                             1 --                                                                 
 __INPUT__/SIM/NAM                                  PRINT_INPUT      INTEGER                             1 --                                                                 
 __INPUT__/SIM/NAM                                  MXITER           INTEGER                             1 --                                                                 
 __INPUT__/SIM                                      NUMMODELS        INTEGER                             1 --                                                                 
 __INPUT__/SIM                                      NUMEXCHANGES     INTEGER                             1 --                                                                 
 __INPUT__/RIGHTMODEL/NAM                           SAVE_FLOWS       INTEGER                             1 --                                                                 
 __INPUT__/RIGHTMODEL/NAM                           FTYPE            STRING LEN=300                      5 --                                                                 
 __INPUT__/RIGHTMODEL/NAM                           FNAME            STRING LEN=300                      5 --                                                                 
 __INPUT__/RIGHTMODEL/NAM                           PNAME            STRING LEN=300                      5 --                                                                 
 __INPUT__/RIGHTMODEL                               PKGTYPES         STRING LEN=7                        0 --                                                                 
 __INPUT__/RIGHTMODEL                               PKGNAMES         STRING LEN=16                       0 --                                                                 
 __INPUT__/RIGHTMODEL                               MEMPATHS         STRING LEN=50                       0 --                                                                 
 __INPUT__/RIGHTMODEL                               INUNITS          INTEGER                             0 --                                                                 
 __INPUT__/RIGHTMODEL/DIS                           INPUT_FNAME      STRING LEN=300                      1 --                                                                 
 __INPUT__/RIGHTMODEL/NPF                           INPUT_FNAME      STRING LEN=300                      1 --                                                                 
 __INPUT__/RIGHTMODEL/CHD_0                         INPUT_FNAME      STRING LEN=300                      1 --                                                                 
 __INPUT__/RIGHTMODEL/DIS                           XORIGIN          DOUBLE                              1 --                                                                 
 __INPUT__/RIGHTMODEL/DIS                           YORIGIN          DOUBLE                              1 --                                                                 
 __INPUT__/RIGHTMODEL/DIS                           NLAY             INTEGER                             1 --                                                                 
 __INPUT__/RIGHTMODEL/DIS                           NROW             INTEGER                             1 --                                                                 
 __INPUT__/RIGHTMODEL/DIS                           NCOL             INTEGER                             1 --                                                                 
 __INPUT__/RIGHTMODEL                               MODEL_SHAPE      INTEGER                             3 --                                                                 
 __INPUT__/RIGHTMODEL                               NCELLDIM         INTEGER                             1 --                                                                 
 __INPUT__/RIGHTMODEL/DIS                           DELR             DOUBLE                              5 --                                                                 
 __INPUT__/RIGHTMODEL/DIS                           DELC             DOUBLE                              5 --                                                                 
 __INPUT__/RIGHTMODEL/DIS                           TOP              DOUBLE                             25 --                                                                 
 __INPUT__/RIGHTMODEL/DIS                           BOTM             DOUBLE                             25 --                                                                 
 -----------------------------------------------------------------------------------------------------------------------------------------------------------------------------



 MEMORY MANAGER TOTAL STORAGE BY DATA TYPE, IN KILOBYTES
 -------------------------------
                    ALLOCATED   
 DATA TYPE           MEMORY     
 -------------------------------
 Character        1.5280000     
 Logical          0.0000000     
 Integer          7.20000000E-02
 Real             0.48000000    
 -------------------------------
 Total            2.0800000     
 Virtual          0.0000000     
 -------------------------------


IDM input_load pkg=NPF
IDM NF90_MAX_DIMS=1024
IDM NF90_MAX_VAR_DIMS=1024
varname=IPAKCB, type=KEYWORD
varname=ISAVSPDIS, type=KEYWORD
varname=ICELLTYPE, type=INTEGER1D
varname=K, type=DOUBLE1D
    ALL SIMULATION MEMORY INFORMATION WILL BE WRITTEN.

 DETAILED INFORMATION ON VARIABLES STORED IN THE MEMORY MANAGER
 -----------------------------------------------------------------------------------------------------------------------------------------------------------------------------
 ORIGIN                                             VARIABLE NAME    DATA TYPE             NUMBER OF ITEMS ASSOCIATED VARIABLE                                                
 -----------------------------------------------------------------------------------------------------------------------------------------------------------------------------
 __INPUT__/SIM/NAM                                  TDIS6            STRING LEN=300                      1 --                                                                 
 __INPUT__/SIM/NAM                                  MTYPE            STRING LEN=300                      2 --                                                                 
 __INPUT__/SIM/NAM                                  MFNAME           STRING LEN=300                      2 --                                                                 
 __INPUT__/SIM/NAM                                  MNAME            STRING LEN=300                      2 --                                                                 
 __INPUT__/SIM/NAM                                  EXGTYPE          STRING LEN=300                      1 --                                                                 
 __INPUT__/SIM/NAM                                  EXGFILE          STRING LEN=300                      1 --                                                                 
 __INPUT__/SIM/NAM                                  EXGMNAMEA        STRING LEN=300                      1 --                                                                 
 __INPUT__/SIM/NAM                                  EXGMNAMEB        STRING LEN=300                      1 --                                                                 
 __INPUT__/SIM/NAM                                  SOLUTIONGROUPNUM INTEGER                             1 --                                                                 
 __INPUT__/SIM/NAM                                  SLNTYPE          STRING LEN=300                      1 --                                                                 
 __INPUT__/SIM/NAM                                  SLNFNAME         STRING LEN=300                      1 --                                                                 
 __INPUT__/SIM/NAM                                  SLNMNAMES        STRING LEN=300                      1 --                                                                 
 __INPUT__/SIM/NAM                                  CONTINUE         INTEGER                             1 --                                                                 
 __INPUT__/SIM/NAM                                  NOCHECK          INTEGER                             1 --                                                                 
 __INPUT__/SIM/NAM                                  PRMEM            STRING LEN=300                      1 --                                                                 
 __INPUT__/SIM/NAM                                  MAXERRORS        INTEGER                             1 --                                                                 
 __INPUT__/SIM/NAM                                  PRINT_INPUT      INTEGER                             1 --                                                                 
 __INPUT__/SIM/NAM                                  MXITER           INTEGER                             1 --                                                                 
 __INPUT__/SIM                                      NUMMODELS        INTEGER                             1 --                                                                 
 __INPUT__/SIM                                      NUMEXCHANGES     INTEGER                             1 --                                                                 
 __INPUT__/RIGHTMODEL/NAM                           SAVE_FLOWS       INTEGER                             1 --                                                                 
 __INPUT__/RIGHTMODEL/NAM                           FTYPE            STRING LEN=300                      5 --                                                                 
 __INPUT__/RIGHTMODEL/NAM                           FNAME            STRING LEN=300                      5 --                                                                 
 __INPUT__/RIGHTMODEL/NAM                           PNAME            STRING LEN=300                      5 --                                                                 
 __INPUT__/RIGHTMODEL                               PKGTYPES         STRING LEN=7                        0 --                                                                 
 __INPUT__/RIGHTMODEL                               PKGNAMES         STRING LEN=16                       0 --                                                                 
 __INPUT__/RIGHTMODEL                               MEMPATHS         STRING LEN=50                       0 --                                                                 
 __INPUT__/RIGHTMODEL                               INUNITS          INTEGER                             0 --                                                                 
 __INPUT__/RIGHTMODEL/DIS                           INPUT_FNAME      STRING LEN=300                      1 --                                                                 
 __INPUT__/RIGHTMODEL/NPF                           INPUT_FNAME      STRING LEN=300                      1 --                                                                 
 __INPUT__/RIGHTMODEL/CHD_0                         INPUT_FNAME      STRING LEN=300                      1 --                                                                 
 __INPUT__/RIGHTMODEL/DIS                           XORIGIN          DOUBLE                              1 --                                                                 
 __INPUT__/RIGHTMODEL/DIS                           YORIGIN          DOUBLE                              1 --                                                                 
 __INPUT__/RIGHTMODEL/DIS                           NLAY             INTEGER                             1 --                                                                 
 __INPUT__/RIGHTMODEL/DIS                           NROW             INTEGER                             1 --                                                                 
 __INPUT__/RIGHTMODEL/DIS                           NCOL             INTEGER                             1 --                                                                 
 __INPUT__/RIGHTMODEL                               MODEL_SHAPE      INTEGER                             3 --                                                                 
 __INPUT__/RIGHTMODEL                               NCELLDIM         INTEGER                             1 --                                                                 
 __INPUT__/RIGHTMODEL/DIS                           DELR             DOUBLE                              5 --                                                                 
 __INPUT__/RIGHTMODEL/DIS                           DELC             DOUBLE                              5 --                                                                 
 __INPUT__/RIGHTMODEL/DIS                           TOP              DOUBLE                             25 --                                                                 
 __INPUT__/RIGHTMODEL/DIS                           BOTM             DOUBLE                             25 --                                                                 
 __INPUT__/RIGHTMODEL/NPF                           IPAKCB           INTEGER                             1 --                                                                 
 __INPUT__/RIGHTMODEL/NPF                           ISAVSPDIS        INTEGER                             1 --                                                                 
 __INPUT__/RIGHTMODEL/NPF                           ICELLTYPE        INTEGER                            25 --                                                                 
 __INPUT__/RIGHTMODEL/NPF                           K                DOUBLE                             25 --                                                                 
 -----------------------------------------------------------------------------------------------------------------------------------------------------------------------------



 MEMORY MANAGER TOTAL STORAGE BY DATA TYPE, IN KILOBYTES
 -------------------------------
                    ALLOCATED   
 DATA TYPE           MEMORY     
 -------------------------------
 Character        1.5280000     
 Logical          0.0000000     
 Integer          0.18000000    
 Real             0.68000000    
 -------------------------------
 Total            2.3880000     
 Virtual          0.0000000     
 -------------------------------



 OPENED rightmodel.ic
 FILE TYPE:IC6       UNIT 1003   STATUS:OLD                 
 FORMAT:FORMATTED              ACCESS:SEQUENTIAL          
 ACTION:READ                


 OPENED rightmodel.oc
 FILE TYPE:OC6       UNIT 1004   STATUS:OLD                 
 FORMAT:FORMATTED              ACCESS:SEQUENTIAL          
 ACTION:READ                

IDM input_load pkg=CHD_0
IDM NF90_MAX_DIMS=1024
IDM NF90_MAX_VAR_DIMS=1024
varname=MAXBOUND, type=INTEGER
    ALL SIMULATION MEMORY INFORMATION WILL BE WRITTEN.

 DETAILED INFORMATION ON VARIABLES STORED IN THE MEMORY MANAGER
 -----------------------------------------------------------------------------------------------------------------------------------------------------------------------------
 ORIGIN                                             VARIABLE NAME    DATA TYPE             NUMBER OF ITEMS ASSOCIATED VARIABLE                                                
 -----------------------------------------------------------------------------------------------------------------------------------------------------------------------------
 __INPUT__/SIM/NAM                                  TDIS6            STRING LEN=300                      1 --                                                                 
 __INPUT__/SIM/NAM                                  MTYPE            STRING LEN=300                      2 --                                                                 
 __INPUT__/SIM/NAM                                  MFNAME           STRING LEN=300                      2 --                                                                 
 __INPUT__/SIM/NAM                                  MNAME            STRING LEN=300                      2 --                                                                 
 __INPUT__/SIM/NAM                                  EXGTYPE          STRING LEN=300                      1 --                                                                 
 __INPUT__/SIM/NAM                                  EXGFILE          STRING LEN=300                      1 --                                                                 
 __INPUT__/SIM/NAM                                  EXGMNAMEA        STRING LEN=300                      1 --                                                                 
 __INPUT__/SIM/NAM                                  EXGMNAMEB        STRING LEN=300                      1 --                                                                 
 __INPUT__/SIM/NAM                                  SOLUTIONGROUPNUM INTEGER                             1 --                                                                 
 __INPUT__/SIM/NAM                                  SLNTYPE          STRING LEN=300                      1 --                                                                 
 __INPUT__/SIM/NAM                                  SLNFNAME         STRING LEN=300                      1 --                                                                 
 __INPUT__/SIM/NAM                                  SLNMNAMES        STRING LEN=300                      1 --                                                                 
 __INPUT__/SIM/NAM                                  CONTINUE         INTEGER                             1 --                                                                 
 __INPUT__/SIM/NAM                                  NOCHECK          INTEGER                             1 --                                                                 
 __INPUT__/SIM/NAM                                  PRMEM            STRING LEN=300                      1 --                                                                 
 __INPUT__/SIM/NAM                                  MAXERRORS        INTEGER                             1 --                                                                 
 __INPUT__/SIM/NAM                                  PRINT_INPUT      INTEGER                             1 --                                                                 
 __INPUT__/SIM/NAM                                  MXITER           INTEGER                             1 --                                                                 
 __INPUT__/SIM                                      NUMMODELS        INTEGER                             1 --                                                                 
 __INPUT__/SIM                                      NUMEXCHANGES     INTEGER                             1 --                                                                 
 __INPUT__/RIGHTMODEL/NAM                           SAVE_FLOWS       INTEGER                             1 --                                                                 
 __INPUT__/RIGHTMODEL/NAM                           FTYPE            STRING LEN=300                      5 --                                                                 
 __INPUT__/RIGHTMODEL/NAM                           FNAME            STRING LEN=300                      5 --                                                                 
 __INPUT__/RIGHTMODEL/NAM                           PNAME            STRING LEN=300                      5 --                                                                 
 __INPUT__/RIGHTMODEL                               PKGTYPES         STRING LEN=7                        0 --                                                                 
 __INPUT__/RIGHTMODEL                               PKGNAMES         STRING LEN=16                       0 --                                                                 
 __INPUT__/RIGHTMODEL                               MEMPATHS         STRING LEN=50                       0 --                                                                 
 __INPUT__/RIGHTMODEL                               INUNITS          INTEGER                             0 --                                                                 
 __INPUT__/RIGHTMODEL/DIS                           INPUT_FNAME      STRING LEN=300                      1 --                                                                 
 __INPUT__/RIGHTMODEL/NPF                           INPUT_FNAME      STRING LEN=300                      1 --                                                                 
 __INPUT__/RIGHTMODEL/CHD_0                         INPUT_FNAME      STRING LEN=300                      1 --                                                                 
 __INPUT__/RIGHTMODEL/DIS                           XORIGIN          DOUBLE                              1 --                                                                 
 __INPUT__/RIGHTMODEL/DIS                           YORIGIN          DOUBLE                              1 --                                                                 
 __INPUT__/RIGHTMODEL/DIS                           NLAY             INTEGER                             1 --                                                                 
 __INPUT__/RIGHTMODEL/DIS                           NROW             INTEGER                             1 --                                                                 
 __INPUT__/RIGHTMODEL/DIS                           NCOL             INTEGER                             1 --                                                                 
 __INPUT__/RIGHTMODEL                               MODEL_SHAPE      INTEGER                             3 --                                                                 
 __INPUT__/RIGHTMODEL                               NCELLDIM         INTEGER                             1 --                                                                 
 __INPUT__/RIGHTMODEL/DIS                           DELR             DOUBLE                              5 --                                                                 
 __INPUT__/RIGHTMODEL/DIS                           DELC             DOUBLE                              5 --                                                                 
 __INPUT__/RIGHTMODEL/DIS                           TOP              DOUBLE                             25 --                                                                 
 __INPUT__/RIGHTMODEL/DIS                           BOTM             DOUBLE                             25 --                                                                 
 __INPUT__/RIGHTMODEL/NPF                           IPAKCB           INTEGER                             1 --                                                                 
 __INPUT__/RIGHTMODEL/NPF                           ISAVSPDIS        INTEGER                             1 --                                                                 
 __INPUT__/RIGHTMODEL/NPF                           ICELLTYPE        INTEGER                            25 --                                                                 
 __INPUT__/RIGHTMODEL/NPF                           K                DOUBLE                             25 --                                                                 
 __INPUT__/RIGHTMODEL/CHD_0                         NAUX             INTEGER                             1 --                                                                 
 __INPUT__/RIGHTMODEL/CHD_0                         MAXBOUND         INTEGER                             1 --                                                                 
 __INPUT__/RIGHTMODEL/CHD_0                         IPER             INTEGER                             1 --                                                                 
 __INPUT__/RIGHTMODEL/CHD_0                         IONPER           INTEGER                             1 --                                                                 
 __INPUT__/RIGHTMODEL/CHD_0                         NBOUND           INTEGER                             1 --                                                                 
 __INPUT__/RIGHTMODEL/CHD_0                         NCPL             INTEGER                             1 --                                                                 
 __INPUT__/RIGHTMODEL/CHD_0                         AUXILIARY        STRING LEN=16                       0 --                                                                 
 __INPUT__/RIGHTMODEL/CHD_0                         CELLID           INTEGER                            15 --                                                                 
 __INPUT__/RIGHTMODEL/CHD_0                         HEAD             DOUBLE                              5 --                                                                 
 __INPUT__/RIGHTMODEL/CHD_0                         BOUNDNAME        STRING LEN=40                       0 --                                                                 
 __INPUT__/RIGHTMODEL/CHD_0                         AUXVAR           DOUBLE                              0 --                                                                 
 -----------------------------------------------------------------------------------------------------------------------------------------------------------------------------



 MEMORY MANAGER TOTAL STORAGE BY DATA TYPE, IN KILOBYTES
 -------------------------------
                    ALLOCATED   
 DATA TYPE           MEMORY     
 -------------------------------
 Character        1.5280000     
 Logical          0.0000000     
 Integer          0.26400000    
 Real             0.72000000    
 -------------------------------
 Total            2.5120000     
 Virtual          0.0000000     
 -------------------------------



 READING SIMULATION OPTIONS
    MAXIMUM NUMBER OF ERRORS THAT WILL BE STORED IS 1000
 END OF SIMULATION OPTIONS

 READING SIMULATION TIMING

 OPENED par_gwf01-2d.tdis
 FILE TYPE:TDIS   UNIT 1005   STATUS:OLD                 
 FORMAT:FORMATTED              ACCESS:SEQUENTIAL          
 ACTION:READ                


 TDIS -- TEMPORAL DISCRETIZATION PACKAGE,
 VERSION 1 : 11/13/2014 - INPUT READ FROM UNIT 1005
 # File generated by Flopy version 3.5.0.dev0 on 10/30/2023 at 09:15:35.
 PROCESSING TDIS OPTIONS
    SIMULATION TIME UNIT IS DAYS
 END OF TDIS OPTIONS
 PROCESSING TDIS DIMENSIONS
    1 STRESS PERIOD(S) IN SIMULATION
 END OF TDIS DIMENSIONS
 PROCESSING TDIS PERIODDATA


 STRESS PERIOD     LENGTH       TIME STEPS     MULTIPLIER FOR DELT
 ----------------------------------------------------------------------------
        1         1.000000          1                    1.000
 END OF TDIS PERIODDATA
 END OF SIMULATION TIMING

 READING SIMULATION MODELS
    GWF6 model 2 will be created
 END OF SIMULATION MODELS

 READING SIMULATION EXCHANGES
    GWF6-GWF6 exchange 1 will be created to connect model 1 with model 2
 END OF SIMULATION EXCHANGES

 READING SOLUTIONGROUP

 Creating solution: SLN_1           

 OPENED par_gwf01-2d.ims
 FILE TYPE:IMS   UNIT 1007   STATUS:OLD                 
 FORMAT:FORMATTED              ACCESS:SEQUENTIAL          
 ACTION:READ                

 END OF SOLUTIONGROUP

 Creating exchange: GWF-GWF_1       

 OPENED par_gwf01-2d.gwfgwf
 FILE TYPE:GWF-GWF   UNIT 1008   STATUS:OLD                 
 FORMAT:FORMATTED              ACCESS:SEQUENTIAL          
 ACTION:READ                

 # File generated by Flopy version 3.5.0.dev0 on 10/30/2023 at 09:15:35.
 PROCESSING GWF-GWF EXCHANGE OPTIONS
    AUXILIARY GWF_GWF_Exchange VARIABLE: ANGLDEGX        
    AUXILIARY GWF_GWF_Exchange VARIABLE: CDIST           
 END OF GWF-GWF EXCHANGE OPTIONS
 PROCESSING EXCHANGE DIMENSIONS
    NEXG = 5
 END OF EXCHANGE DIMENSIONS
 PROCESSING EXCHANGEDATA
 END OF EXCHANGEDATA

PROCESSING MODEL CONNECTIONS
 Created 1 model connections for solution SLN_1
END OF MODEL CONNECTIONS

 IMS -- ITERATIVE MODEL SOLUTION PACKAGE, VERSION 6, 4/28/2017
         INPUT READ FROM UNIT 1007
 # File generated by Flopy version 3.5.0.dev0 on 10/30/2023 at 09:15:35.

 PROCESSING IMS OPTIONS
 END OF IMS OPTIONS

 PROCESSING IMS NONLINEAR
 END OF IMS NONLINEAR DATA
 ***UNDER-RELAXATION WILL NOT BE USED***


 PROCESSING LINEAR DATA
 END OF LINEAR DATA

 PETSc Linear Solver will be used: version 3.19.2 (release)                                                                                                                

 An asymmetric matrix will be solved

 OUTER ITERATION CONVERGENCE CRITERION    (DVCLOSE) =    0.100000E-07
 MAXIMUM NUMBER OF OUTER ITERATIONS        (MXITER) = 100
 SOLVER PRINTOUT INDEX                     (IPRIMS) = 2
 NONLINEAR ITERATION METHOD            (NONLINMETH) = 0
 LINEAR SOLUTION METHOD                   (LINMETH) = 2

       PETSc linear solver settings: 
 ------------------------------------------------------------------
 Linear acceleration method:   bcgs
 Preconditioner type:          bjacobi
 Sub-preconditioner type:      ilu
 Maximum nr. of iterations:    300
 Dep. var. closure criterion:  0.10000E-07


    Solving:  Stress period:     1    Time step:     1

1
                            STRESS PERIOD NO. 1, LENGTH =   1.000000    
                            -----------------------------------------------
                            NUMBER OF TIME STEPS = 1
                            MULTIPLIER FOR DELT =     1.000
IDM inlist_rp iiper=1
IDM RP LIST kper=1
IDM RP LIST varname=CELLID, type=INTEGER1D
Found INODATA CELLIDsize m=3size n=5
CELLID FIRST SET nbound=5
IDM RP LIST varname=HEAD, type=DOUBLE
                            INITIAL TIME STEP SIZE =   1.000000    

 SLN_1 OUTER ITERATION SUMMARY
 ----------------------------------------------------------------------------------------------------------
                                OUTER      INNER                    STEP   MAXIMUM CHANGE MODEL-(CELLID) OR
 OUTER ITERATION STEP       ITERATION  ITERATION  MAXIMUM CHANGE SUCCESS             MODEL-PACKAGE-(NUMBER)
 ----------------------------------------------------------------------------------------------------------
 Model                              1         12       9.0000000                              2_GWF-(1,5,4)
 Model                              2          1  1.61808345E-11       *                      2_GWF-(1,1,1)
 ----------------------------------------------------------------------------------------------------------


 2 CALLS TO NUMERICAL SOLUTION IN TIME STEP 1 STRESS PERIOD 1
 13 TOTAL ITERATIONS

 SLN_1 INNER ITERATION SUMMARY
 --------------------------------------------------------------------------------------------------------------------------------------
      TOTAL      OUTER      INNER                                                            MAXIMUM                                   
  ITERATION  ITERATION  ITERATION  MAXIMUM CHANGE      MAXIMUM CHANGE MODEL-(CELLID)        RESIDUAL    MAXIMUM RESIDUAL MODEL-(CELLID)
 --------------------------------------------------------------------------------------------------------------------------------------
          1          1          1       7.4920474                      2_GWF-(1,5,4)       970.14385                      2_GWF-(1,5,4)
          2          1          2       2.1611276                      2_GWF-(1,5,1)       46.304870                      2_GWF-(1,2,1)
          3          1          3       2.0039275                      2_GWF-(1,3,1)       40.401872                      2_GWF-(1,3,1)
          4          1          4      0.45616140                      2_GWF-(1,1,1)       9.6071879                      2_GWF-(1,3,1)
          5          1          5  3.97973796E-02                      2_GWF-(1,1,1)       1.1177202                      2_GWF-(1,4,1)
          6          1          6  5.20227400E-03                      2_GWF-(1,1,1)      0.21363195                      2_GWF-(1,1,1)
          7          1          7  4.82908169E-04                      2_GWF-(1,1,1)  5.03527395E-02                      2_GWF-(1,5,1)
          8          1          8  1.66407892E-04                      2_GWF-(1,1,1)  7.14216468E-03                      2_GWF-(1,1,1)
          9          1          9  1.12866011E-05                      2_GWF-(1,1,1)  8.92791122E-04                      2_GWF-(1,1,1)
         10          1         10 -1.78059104E-07                      2_GWF-(1,1,1) -1.66024298E-05                      2_GWF-(1,1,1)
         11          1         11  3.35525104E-07                      2_GWF-(1,1,1)  2.17795479E-05                      2_GWF-(1,1,1)
         12          1         12  8.23812130E-10                      2_GWF-(1,1,1)  5.26850954E-08                      2_GWF-(1,1,1)
         13          2          1  1.61808345E-11                      2_GWF-(1,1,1)  1.54972213E-09                      2_GWF-(1,2,1)
 --------------------------------------------------------------------------------------------------------------------------------------




 Solution SLN_1 summary
 ----------------------------------------------------------------------
 Total formulate time:  0.47500000000000320E-3 seconds
 Total solution time:   0.18530000000000005E-2 seconds


 DETAILED INFORMATION ON VARIABLES STORED IN THE MEMORY MANAGER
 -----------------------------------------------------------------------------------------------------------------------------------------------------------------------------
 ORIGIN                                             VARIABLE NAME    DATA TYPE             NUMBER OF ITEMS ASSOCIATED VARIABLE                                                
 -----------------------------------------------------------------------------------------------------------------------------------------------------------------------------
 __INPUT__/SIM/NAM                                  TDIS6            STRING LEN=300                      1 --                                                                 
 __INPUT__/SIM/NAM                                  MTYPE            STRING LEN=300                      2 --                                                                 
 __INPUT__/SIM/NAM                                  MFNAME           STRING LEN=300                      2 --                                                                 
 __INPUT__/SIM/NAM                                  MNAME            STRING LEN=300                      2 --                                                                 
 __INPUT__/SIM/NAM                                  EXGTYPE          STRING LEN=300                      1 --                                                                 
 __INPUT__/SIM/NAM                                  EXGFILE          STRING LEN=300                      1 --                                                                 
 __INPUT__/SIM/NAM                                  EXGMNAMEA        STRING LEN=300                      1 --                                                                 
 __INPUT__/SIM/NAM                                  EXGMNAMEB        STRING LEN=300                      1 --                                                                 
 __INPUT__/SIM/NAM                                  SOLUTIONGROUPNUM INTEGER                             1 --                                                                 
 __INPUT__/SIM/NAM                                  SLNTYPE          STRING LEN=300                      1 --                                                                 
 __INPUT__/SIM/NAM                                  SLNFNAME         STRING LEN=300                      1 --                                                                 
 __INPUT__/SIM/NAM                                  SLNMNAMES        STRING LEN=300                      1 --                                                                 
 __INPUT__/SIM/NAM                                  CONTINUE         INTEGER                             1 --                                                                 
 __INPUT__/SIM/NAM                                  NOCHECK          INTEGER                             1 --                                                                 
 __INPUT__/SIM/NAM                                  PRMEM            STRING LEN=300                      1 --                                                                 
 __INPUT__/SIM/NAM                                  MAXERRORS        INTEGER                             1 --                                                                 
 __INPUT__/SIM/NAM                                  PRINT_INPUT      INTEGER                             1 --                                                                 
 __INPUT__/SIM/NAM                                  MXITER           INTEGER                             1 --                                                                 
 __INPUT__/SIM                                      NUMMODELS        INTEGER                             1 --                                                                 
 __INPUT__/SIM                                      NUMEXCHANGES     INTEGER                             1 --                                                                 
 __INPUT__/RIGHTMODEL/NAM                           SAVE_FLOWS       INTEGER                             1 --                                                                 
 __INPUT__/RIGHTMODEL/NAM                           FTYPE            STRING LEN=300                      5 --                                                                 
 __INPUT__/RIGHTMODEL/NAM                           FNAME            STRING LEN=300                      5 --                                                                 
 __INPUT__/RIGHTMODEL/NAM                           PNAME            STRING LEN=300                      5 --                                                                 
 __INPUT__/RIGHTMODEL                               PKGTYPES         STRING LEN=7                        5 --                                                                 
 __INPUT__/RIGHTMODEL                               PKGNAMES         STRING LEN=16                       5 --                                                                 
 __INPUT__/RIGHTMODEL                               MEMPATHS         STRING LEN=50                       5 --                                                                 
 __INPUT__/RIGHTMODEL                               INUNITS          INTEGER                             5 --                                                                 
 __INPUT__/RIGHTMODEL/DIS                           INPUT_FNAME      STRING LEN=300                      1 --                                                                 
 __INPUT__/RIGHTMODEL/NPF                           INPUT_FNAME      STRING LEN=300                      1 --                                                                 
 __INPUT__/RIGHTMODEL/CHD_0                         INPUT_FNAME      STRING LEN=300                      1 --                                                                 
 __INPUT__/RIGHTMODEL/DIS                           XORIGIN          DOUBLE                              1 --                                                                 
 __INPUT__/RIGHTMODEL/DIS                           YORIGIN          DOUBLE                              1 --                                                                 
 __INPUT__/RIGHTMODEL/DIS                           NLAY             INTEGER                             1 --                                                                 
 __INPUT__/RIGHTMODEL/DIS                           NROW             INTEGER                             1 --                                                                 
 __INPUT__/RIGHTMODEL/DIS                           NCOL             INTEGER                             1 --                                                                 
 __INPUT__/RIGHTMODEL                               MODEL_SHAPE      INTEGER                             3 --                                                                 
 __INPUT__/RIGHTMODEL                               NCELLDIM         INTEGER                             1 --                                                                 
 __INPUT__/RIGHTMODEL/DIS                           DELR             DOUBLE                              5 --                                                                 
 __INPUT__/RIGHTMODEL/DIS                           DELC             DOUBLE                              5 --                                                                 
 __INPUT__/RIGHTMODEL/DIS                           TOP              DOUBLE                             25 --                                                                 
 __INPUT__/RIGHTMODEL/DIS                           BOTM             DOUBLE                             25 --                                                                 
 __INPUT__/RIGHTMODEL/NPF                           IPAKCB           INTEGER                             1 --                                                                 
 __INPUT__/RIGHTMODEL/NPF                           ISAVSPDIS        INTEGER                             1 --                                                                 
 __INPUT__/RIGHTMODEL/NPF                           ICELLTYPE        INTEGER                            25 --                                                                 
 __INPUT__/RIGHTMODEL/NPF                           K                DOUBLE                             25 --                                                                 
 __INPUT__/RIGHTMODEL/CHD_0                         NAUX             INTEGER                             1 --                                                                 
 __INPUT__/RIGHTMODEL/CHD_0                         MAXBOUND         INTEGER                             1 --                                                                 
 __INPUT__/RIGHTMODEL/CHD_0                         IPER             INTEGER                             1 --                                                                 
 __INPUT__/RIGHTMODEL/CHD_0                         IONPER           INTEGER                             1 --                                                                 
 __INPUT__/RIGHTMODEL/CHD_0                         NBOUND           INTEGER                             1 --                                                                 
 __INPUT__/RIGHTMODEL/CHD_0                         NCPL             INTEGER                             1 --                                                                 
 __INPUT__/RIGHTMODEL/CHD_0                         AUXILIARY        STRING LEN=16                       0 --                                                                 
 __INPUT__/RIGHTMODEL/CHD_0                         CELLID           INTEGER                            15 --                                                                 
 __INPUT__/RIGHTMODEL/CHD_0                         HEAD             DOUBLE                              5 --                                                                 
 __INPUT__/RIGHTMODEL/CHD_0                         BOUNDNAME        STRING LEN=40                       0 --                                                                 
 __INPUT__/RIGHTMODEL/CHD_0                         AUXVAR           DOUBLE                              0 --                                                                 
 TDIS                                               NPER             INTEGER                             1 --                                                                 
 TDIS                                               ITMUNI           INTEGER                             1 --                                                                 
 TDIS                                               KPER             INTEGER                             1 --                                                                 
 TDIS                                               KSTP             INTEGER                             1 --                                                                 
 TDIS                                               INATS            INTEGER                             1 --                                                                 
 TDIS                                               READNEWDATA      LOGICAL                             1 --                                                                 
 TDIS                                               ENDOFPERIOD      LOGICAL                             1 --                                                                 
 TDIS                                               ENDOFSIMULATION  LOGICAL                             1 --                                                                 
 TDIS                                               DELT             DOUBLE                              1 --                                                                 
 TDIS                                               PERTIM           DOUBLE                              1 --                                                                 
 TDIS                                               TOPERTIM         DOUBLE                              1 --                                                                 
 TDIS                                               TOTIM            DOUBLE                              1 --                                                                 
 TDIS                                               TOTIMC           DOUBLE                              1 --                                                                 
 TDIS                                               DELTSAV          DOUBLE                              1 --                                                                 
 TDIS                                               TOTIMSAV         DOUBLE                              1 --                                                                 
 TDIS                                               PERTIMSAV        DOUBLE                              1 --                                                                 
 TDIS                                               TOTALSIMTIME     DOUBLE                              1 --                                                                 
 TDIS                                               PERLEN           DOUBLE                              1 --                                                                 
 TDIS                                               NSTP             INTEGER                             1 --                                                                 
 TDIS                                               TSMULT           DOUBLE                              1 --                                                                 
 __INPUT__/SIM/NAM                                  MRANKS           INTEGER                             2 --                                                                 
 RIGHTMODEL                                         NAME             STRING LEN=16                       1 --                                                                 
 RIGHTMODEL                                         MACRONYM         STRING LEN=3                        1 --                                                                 
 RIGHTMODEL                                         ID               INTEGER                             1 --                                                                 
 RIGHTMODEL                                         IOUT             INTEGER                             1 --                                                                 
 RIGHTMODEL                                         INEWTON          INTEGER                             1 --                                                                 
 RIGHTMODEL                                         IPRPAK           INTEGER                             1 --                                                                 
 RIGHTMODEL                                         IPRFLOW          INTEGER                             1 --                                                                 
 RIGHTMODEL                                         IPAKCB           INTEGER                             1 --                                                                 
 RIGHTMODEL                                         IDSOLN           INTEGER                             1 --                                                                 
 RIGHTMODEL                                         NEQ              INTEGER                             1 --                                                                 
 RIGHTMODEL                                         NJA              INTEGER                             1 --                                                                 
 RIGHTMODEL                                         ICNVG            INTEGER                             1 --                                                                 
 RIGHTMODEL                                         MOFFSET          INTEGER                             1 --                                                                 
 RIGHTMODEL                                         INIC             INTEGER                             1 --                                                                 
 RIGHTMODEL                                         INOC             INTEGER                             1 --                                                                 
 RIGHTMODEL                                         INNPF            INTEGER                             1 --                                                                 
 RIGHTMODEL                                         INBUY            INTEGER                             1 --                                                                 
 RIGHTMODEL                                         INVSC            INTEGER                             1 --                                                                 
 RIGHTMODEL                                         INSTO            INTEGER                             1 --                                                                 
 RIGHTMODEL                                         INCSUB           INTEGER                             1 --                                                                 
 RIGHTMODEL                                         INMVR            INTEGER                             1 --                                                                 
 RIGHTMODEL                                         INHFB            INTEGER                             1 --                                                                 
 RIGHTMODEL                                         INGNC            INTEGER                             1 --                                                                 
 RIGHTMODEL                                         INOBS            INTEGER                             1 --                                                                 
 RIGHTMODEL                                         ISS              INTEGER                             1 --                                                                 
 RIGHTMODEL                                         INEWTONUR        INTEGER                             1 --                                                                 
 RIGHTMODEL/DIS                                     INUNIT           INTEGER                             1 --                                                                 
 RIGHTMODEL/DIS                                     IOUT             INTEGER                             1 --                                                                 
 RIGHTMODEL/DIS                                     NODES            INTEGER                             1 --                                                                 
 RIGHTMODEL/DIS                                     NODESUSER        INTEGER                             1 --                                                                 
 RIGHTMODEL/DIS                                     NDIM             INTEGER                             1 --                                                                 
 RIGHTMODEL/DIS                                     ICONDIR          INTEGER                             1 --                                                                 
 RIGHTMODEL/DIS                                     NOGRB            INTEGER                             1 --                                                                 
 RIGHTMODEL/DIS                                     XORIGIN          DOUBLE                              1 --                                                                 
 RIGHTMODEL/DIS                                     YORIGIN          DOUBLE                              1 --                                                                 
 RIGHTMODEL/DIS                                     ANGROT           DOUBLE                              1 --                                                                 
 RIGHTMODEL/DIS                                     NJA              INTEGER                             1 --                                                                 
 RIGHTMODEL/DIS                                     NJAS             INTEGER                             1 --                                                                 
 RIGHTMODEL/DIS                                     LENUNI           INTEGER                             1 --                                                                 
 RIGHTMODEL/DIS                                     NLAY             INTEGER                             1 --                                                                 
 RIGHTMODEL/DIS                                     NROW             INTEGER                             1 --                                                                 
 RIGHTMODEL/DIS                                     NCOL             INTEGER                             1 --                                                                 
 RIGHTMODEL/NPF                                     INPUT_FNAME      STRING LEN=300                      1 --                                                                 
 RIGHTMODEL/NPF                                     PACKAGE_TYPE     STRING LEN=5                        1 --                                                                 
 RIGHTMODEL/NPF                                     ID               INTEGER                             1 --                                                                 
 RIGHTMODEL/NPF                                     INUNIT           INTEGER                             1 --                                                                 
 RIGHTMODEL/NPF                                     IOUT             INTEGER                             1 --                                                                 
 RIGHTMODEL/NPF                                     INEWTON          INTEGER                             1 --                                                                 
 RIGHTMODEL/NPF                                     IASYM            INTEGER                             1 --                                                                 
 RIGHTMODEL/NPF                                     IPRPAK           INTEGER                             1 --                                                                 
 RIGHTMODEL/NPF                                     IPRFLOW          INTEGER                             1 --                                                                 
 RIGHTMODEL/NPF                                     IPAKCB           INTEGER                             1 --                                                                 
 RIGHTMODEL/NPF                                     IONPER           INTEGER                             1 --                                                                 
 RIGHTMODEL/NPF                                     LASTONPER        INTEGER                             1 --                                                                 
 RIGHTMODEL/NPF                                     INAME            INTEGER                             1 --                                                                 
 RIGHTMODEL/NPF                                     IXT3D            INTEGER                             1 --                                                                 
 RIGHTMODEL/NPF                                     IXT3DRHS         INTEGER                             1 --                                                                 
 RIGHTMODEL/NPF                                     SATOMEGA         DOUBLE                              1 --                                                                 
 RIGHTMODEL/NPF                                     HNOFLO           DOUBLE                              1 --                                                                 
 RIGHTMODEL/NPF                                     HDRY             DOUBLE                              1 --                                                                 
 RIGHTMODEL/NPF                                     ICELLAVG         INTEGER                             1 --                                                                 
 RIGHTMODEL/NPF                                     IAVGKEFF         INTEGER                             1 --                                                                 
 RIGHTMODEL/NPF                                     IK22             INTEGER                             1 --                                                                 
 RIGHTMODEL/NPF                                     IK33             INTEGER                             1 --                                                                 
 RIGHTMODEL/NPF                                     IK22OVERK        INTEGER                             1 --                                                                 
 RIGHTMODEL/NPF                                     IK33OVERK        INTEGER                             1 --                                                                 
 RIGHTMODEL/NPF                                     IPERCHED         INTEGER                             1 --                                                                 
 RIGHTMODEL/NPF                                     IVARCV           INTEGER                             1 --                                                                 
 RIGHTMODEL/NPF                                     IDEWATCV         INTEGER                             1 --                                                                 
 RIGHTMODEL/NPF                                     ITHICKSTRT       INTEGER                             1 --                                                                 
 RIGHTMODEL/NPF                                     IUSGNRHC         INTEGER                             1 --                                                                 
 RIGHTMODEL/NPF                                     INWTUPW          INTEGER                             1 --                                                                 
 RIGHTMODEL/NPF                                     ICALCSPDIS       INTEGER                             1 --                                                                 
 RIGHTMODEL/NPF                                     ISAVSPDIS        INTEGER                             1 --                                                                 
 RIGHTMODEL/NPF                                     ISAVSAT          INTEGER                             1 --                                                                 
 RIGHTMODEL/NPF                                     IREWET           INTEGER                             1 --                                                                 
 RIGHTMODEL/NPF                                     WETFCT           DOUBLE                              1 --                                                                 
 RIGHTMODEL/NPF                                     IWETIT           INTEGER                             1 --                                                                 
 RIGHTMODEL/NPF                                     IHDWET           INTEGER                             1 --                                                                 
 RIGHTMODEL/NPF                                     SATMIN           DOUBLE                              1 --                                                                 
 RIGHTMODEL/NPF                                     IANGLE1          INTEGER                             1 --                                                                 
 RIGHTMODEL/NPF                                     IANGLE2          INTEGER                             1 --                                                                 
 RIGHTMODEL/NPF                                     IANGLE3          INTEGER                             1 --                                                                 
 RIGHTMODEL/NPF                                     IWETDRY          INTEGER                             1 --                                                                 
 RIGHTMODEL/NPF                                     NEDGES           INTEGER                             1 --                                                                 
 RIGHTMODEL/NPF                                     LASTEDGE         INTEGER                             1 --                                                                 
 RIGHTMODEL/NPF                                     INTVK            INTEGER                             1 --                                                                 
 RIGHTMODEL/NPF                                     INVSC            INTEGER                             1 --                                                                 
 RIGHTMODEL/NPF                                     KCHANGEPER       INTEGER                             1 --                                                                 
 RIGHTMODEL/NPF                                     KCHANGESTP       INTEGER                             1 --                                                                 
 RIGHTMODEL/XT3D                                    IXT3D            INTEGER                             1 --                                                                 
 RIGHTMODEL/XT3D                                    NBRMAX           INTEGER                             1 --                                                                 
 RIGHTMODEL/XT3D                                    INUNIT           INTEGER                             1 --                                                                 
 RIGHTMODEL/XT3D                                    IOUT             INTEGER                             1 --                                                                 
 RIGHTMODEL/XT3D                                    INEWTON          INTEGER                             1 --                                                                 
 RIGHTMODEL/XT3D                                    NUMEXTNBRS       INTEGER                             1 --                                                                 
 RIGHTMODEL/XT3D                                    NOZEE            LOGICAL                             1 --                                                                 
 RIGHTMODEL/XT3D                                    VCTHRESH         DOUBLE                              1 --                                                                 
 RIGHTMODEL/XT3D                                    LAMATSAVED       LOGICAL                             1 --                                                                 
 RIGHTMODEL/XT3D                                    LDISPERSION      LOGICAL                             1 --                                                                 
 RIGHTMODEL/BUY                                     INPUT_FNAME      STRING LEN=300                      1 --                                                                 
 RIGHTMODEL/BUY                                     PACKAGE_TYPE     STRING LEN=5                        1 --                                                                 
 RIGHTMODEL/BUY                                     ID               INTEGER                             1 --                                                                 
 RIGHTMODEL/BUY                                     INUNIT           INTEGER                             1 --                                                                 
 RIGHTMODEL/BUY                                     IOUT             INTEGER                             1 --                                                                 
 RIGHTMODEL/BUY                                     INEWTON          INTEGER                             1 --                                                                 
 RIGHTMODEL/BUY                                     IASYM            INTEGER                             1 --                                                                 
 RIGHTMODEL/BUY                                     IPRPAK           INTEGER                             1 --                                                                 
 RIGHTMODEL/BUY                                     IPRFLOW          INTEGER                             1 --                                                                 
[...]
 GWFIM2_1/DIS                                       BOT              DOUBLE                             10 --                                                                 
 GWFIM2_1/DIS                                       AREA             DOUBLE                             10 --                                                                 
 GWFIM2_1                                           DBUFF            DOUBLE                             10 --                                                                 
 GWFIM2_1                                           IBUFF            INTEGER                            10 --                                                                 
 GWFIM2_1/DIS                                       NODEUSER         INTEGER                             1 --                                                                 
 GWFIM2_1/DIS                                       NODEREDUCED      INTEGER                             1 --                                                                 
 GWFIM2_1/DIS                                       IDOMAIN          INTEGER                            10 --                                                                 
 GWFIM2_1/DIS                                       VERTICES         DOUBLE                              0 --                                                                 
 GWFIM2_1/DIS                                       CELLXY           DOUBLE                             20 --                                                                 
 GWFIM2_1/NPF                                       ITHICKSTARTFLAG  INTEGER                            10 --                                                                 
 GWFIM2_1/NPF                                       ICELLTYPE        INTEGER                            10 --                                                                 
 GWFIM2_1/NPF                                       K11              DOUBLE                             10 --                                                                 
 GWFIM2_1/NPF                                       SAT              DOUBLE                             10 --                                                                 
 GWFIM2_1/NPF                                       CONDSAT          DOUBLE                              5 --                                                                 
 GWFIM2_1/NPF                                       K22              DOUBLE                             10 --                                                                 
 GWFIM2_1/NPF                                       K33              DOUBLE                             10 --                                                                 
 GWFIM2_1/NPF                                       WETDRY           DOUBLE                             10 --                                                                 
 GWFIM2_1/NPF                                       ANGLE1           DOUBLE                             10 --                                                                 
 GWFIM2_1/NPF                                       ANGLE2           DOUBLE                             10 --                                                                 
 GWFIM2_1/NPF                                       ANGLE3           DOUBLE                             10 --                                                                 
 GWFIM2_1/NPF                                       IBOTNODE         INTEGER                             0 --                                                                 
 GWFIM2_1/NPF                                       NODEDGE          INTEGER                             0 --                                                                 
 GWFIM2_1/NPF                                       IHCEDGE          INTEGER                             0 --                                                                 
 GWFIM2_1/NPF                                       PROPSEDGE        DOUBLE                              0 --                                                                 
 GWFIM2_1/NPF                                       K11INPUT         DOUBLE                              0 --                                                                 
 GWFIM2_1/NPF                                       K22INPUT         DOUBLE                              0 --                                                                 
 GWFIM2_1/NPF                                       K33INPUT         DOUBLE                              0 --                                                                 
 GWFIM2_1/NPF                                       SPDIS            DOUBLE                              0 --                                                                 
 GWFIM2_1/NPF                                       NODEKCHANGE      INTEGER                            10 --                                                                 
 GWFIM2_1                                           XOLD             DOUBLE                             10 --                                                                 
 GWFIM2_1                                           FLOWJA           DOUBLE                             20 --                                                                 
 GWFIM2_1                                           IDXGLO           INTEGER                            20 --                                                                 
 GWFIM2_1                                           X                DOUBLE                             10 GWFCON2_1/X                                                        
 GWFIM2_1                                           RHS              DOUBLE                             10 GWFCON2_1/RHS                                                      
 GWFIM2_1                                           IBOUND           INTEGER                            10 GWFCON2_1/IBOUND                                                   
 GWFCON2_1                                          NROW             INTEGER                             1 --                                                                 
 GWFCON2_1                                          NCOL             INTEGER                             1 --                                                                 
 GWFCON2_1                                          NJA              INTEGER                             1 --                                                                 
 GWFCON2_1                                          IA               INTEGER                            11 --                                                                 
 GWFCON2_1                                          JA               INTEGER                            20 --                                                                 
 GWFCON2_1                                          AMAT             DOUBLE                             20 --                                                                 
 SLN_1                                              X                DOUBLE                             25 --                                                                 
 SLN_1                                              RHS              DOUBLE                             25 --                                                                 
 SLN_1                                              IACTIVE          INTEGER                            25 --                                                                 
 SLN_1                                              XTEMP            DOUBLE                             25 --                                                                 
 SLN_1                                              DXOLD            DOUBLE                             25 --                                                                 
 SLN_1                                              HNCG             DOUBLE                            100 --                                                                 
 SLN_1                                              LRCH             INTEGER                           300 --                                                                 
 SLN_1                                              WSAVE            DOUBLE                              0 --                                                                 
 SLN_1                                              HCHOLD           DOUBLE                              0 --                                                                 
 SLN_1                                              DEOLD            DOUBLE                              0 --                                                                 
 SLN_1                                              CONVMODSTART     INTEGER                             2 --                                                                 
 TMPSLN_1                                           CONVNMOD         INTEGER                             1 --                                                                 
 TMPSLN_1                                           NITERMAX         INTEGER                             1 --                                                                 
 TMPSLN_1                                           ITINNER          INTEGER                         30000 --                                                                 
 TMPSLN_1                                           LOCDV            INTEGER                             1 --                                                                 
 TMPSLN_1                                           DVMAX            DOUBLE                              1 --                                                                 
 TMPSLN_1                                           LOCDR            INTEGER                             1 --                                                                 
 TMPSLN_1                                           DRMAX            DOUBLE                              1 --                                                                 
 TMPSLN_1                                           CONVDVMAX        DOUBLE                          30000 --                                                                 
 TMPSLN_1                                           CONVLOCDV        INTEGER                         30000 --                                                                 
 TMPSLN_1                                           CONVDRMAX        DOUBLE                          30000 --                                                                 
 TMPSLN_1                                           CONVLOCDR        INTEGER                         30000 --                                                                 
 RIGHTMODEL                                         X                DOUBLE                             25 SLN_1/X                                                            
 RIGHTMODEL                                         RHS              DOUBLE                             25 SLN_1/RHS                                                          
 RIGHTMODEL                                         IBOUND           INTEGER                            25 SLN_1/IBOUND                                                       
 __P0__/LEFTMODEL                                   MOFFSET          INTEGER                             1 --                                                                 
 __P0__/LEFTMODEL/DIS                               NODEUSER         INTEGER                             0 --                                                                 
 RIGHTMODEL/IC                                      STRT             DOUBLE                             25 --                                                                 
 RIGHTMODEL/CHD_0                                   NODELIST         INTEGER                             5 --                                                                 
 RIGHTMODEL/CHD_0                                   NOUPDATEAUXVAR   INTEGER                             0 --                                                                 
 RIGHTMODEL/CHD_0                                   BOUND            DOUBLE                              5 --                                                                 
 RIGHTMODEL/CHD_0                                   CONDINPUT        DOUBLE                              0 --                                                                 
 RIGHTMODEL/CHD_0                                   HCOF             DOUBLE                              5 --                                                                 
 RIGHTMODEL/CHD_0                                   RHS              DOUBLE                              5 --                                                                 
 RIGHTMODEL/CHD_0                                   SIMVALS          DOUBLE                              5 --                                                                 
 RIGHTMODEL/CHD_0                                   SIMTOMVR         DOUBLE                              0 --                                                                 
 RIGHTMODEL/CHD_0                                   AUXVAR           DOUBLE                              0 --                                                                 
 RIGHTMODEL/CHD_0                                   BOUNDNAME        STRING LEN=40                       0 --                                                                 
 RIGHTMODEL/CHD_0                                   BOUNDNAME_CST    STRING LEN=40                       0 --                                                                 
 RIGHTMODEL/CHD_0                                   CELLID           INTEGER                            15 __INPUT__/RIGHTMODEL/CHD_0/CELLID                                  
 RIGHTMODEL/CHD_0                                   BOUNDNAME_IDM    STRING LEN=40                       0 __INPUT__/RIGHTMODEL/CHD_0/BOUNDNAME                               
 RIGHTMODEL/CHD_0                                   AUXVAR_IDM       DOUBLE                              0 __INPUT__/RIGHTMODEL/CHD_0/AUXVAR                                  
 RIGHTMODEL/CHD_0                                   RATECHDIN        DOUBLE                              5 --                                                                 
 RIGHTMODEL/CHD_0                                   RATECHDOUT       DOUBLE                              5 --                                                                 
 RIGHTMODEL/CHD_0                                   HEAD             DOUBLE                              5 __INPUT__/RIGHTMODEL/CHD_0/HEAD                                    
 __P0__/LEFTMODEL                                   X                DOUBLE                              5 --                                                                 
 __P0__/LEFTMODEL                                   IBOUND           INTEGER                             5 --                                                                 
 __P0__/LEFTMODEL                                   XOLD             DOUBLE                              5 --                                                                 
 __P0__/LEFTMODEL/NPF                               ICELLTYPE        INTEGER                             5 --                                                                 
 __P0__/LEFTMODEL/NPF                               K11              DOUBLE                              5 --                                                                 
 __P0__/LEFTMODEL/NPF                               K22              DOUBLE                              5 --                                                                 
 __P0__/LEFTMODEL/NPF                               K33              DOUBLE                              5 --                                                                 
 __P0__/LEFTMODEL/NPF                               ANGLE1           DOUBLE                              0 --                                                                 
 __P0__/LEFTMODEL/NPF                               ANGLE2           DOUBLE                              0 --                                                                 
 __P0__/LEFTMODEL/NPF                               ANGLE3           DOUBLE                              0 --                                                                 
 __P0__/LEFTMODEL/NPF                               WETDRY           DOUBLE                              0 --                                                                 
 SLN_1/IMSLINEAR                                    DVCLOSE          DOUBLE                              1 --                                                                 
 SLN_1/IMSLINEAR                                    RCLOSE           DOUBLE                              1 --                                                                 
 SLN_1/IMSLINEAR                                    ICNVGOPT         INTEGER                             1 --                                                                 
 SLN_1/IMSLINEAR                                    ITER1            INTEGER                             1 --                                                                 
 SLN_1/IMSLINEAR                                    ILINMETH         INTEGER                             1 --                                                                 
 SLN_1/IMSLINEAR                                    ISCL             INTEGER                             1 --                                                                 
 SLN_1/IMSLINEAR                                    IORD             INTEGER                             1 --                                                                 
 SLN_1/IMSLINEAR                                    NORTH            INTEGER                             1 --                                                                 
 SLN_1/IMSLINEAR                                    RELAX            DOUBLE                              1 --                                                                 
 SLN_1/IMSLINEAR                                    LEVEL            INTEGER                             1 --                                                                 
 SLN_1/IMSLINEAR                                    DROPTOL          DOUBLE                              1 --                                                                 
 SLN_1/IMSLINEAR                                    IDFPARAM         INTEGER                             1 --                                                                 
 -----------------------------------------------------------------------------------------------------------------------------------------------------------------------------



 MEMORY MANAGER TOTAL STORAGE BY DATA TYPE, IN KILOBYTES
 -------------------------------
                    ALLOCATED   
 DATA TYPE           MEMORY     
 -------------------------------
 Character        6.2950000     
 Logical          5.20000000E-02
 Integer          368.32400     
 Real             493.64000     
 -------------------------------
 Total            868.31100     
 Virtual          3.7120000     
 -------------------------------



 Run end date and time (yyyy/mm/dd hh:mm:ss): 2023/10/30  9:15:35
 Elapsed run time:  0.026 Seconds
 Normal termination of simulation.
