                             MODFLOW 6 PROFESSIONAL
                U.S. GEOLOGICAL SURVEY MODULAR HYDROLOGIC MODEL
                  VERSION 6.5.0.dev0 (preliminary) 07/13/2023
                               ***DEVELOP MODE***

        MODFLOW 6 compiled Oct 26 2023 10:42:39 with GCC version 11.3.0

This software is preliminary or provisional and is subject to 
revision. It is being provided to meet the need for timely best 
science. The software has not received final approval by the U.S. 
Geological Survey (USGS). No warranty, expressed or implied, is made 
by the USGS or the U.S. Government as to the functionality of the 
software and related material nor shall the fact of release 
constitute any such warranty. The software is provided on the 
condition that neither the USGS nor the U.S. Government shall be held 
liable for any damages resulting from the authorized or unauthorized 
use of the software.


As a work of the United States Government, this USGS product is 
in the public domain within the United States. You can copy, 
modify, distribute, and perform the work, even for commercial 
purposes, all without asking permission. Additionally, USGS 
waives copyright and related rights in the work worldwide 
through CC0 1.0 Universal Public Domain Dedication 
(https://creativecommons.org/publicdomain/zero/1.0/).

The following GNU Lesser General Public License (LGPL) libraries
are used in this USGS product:

    SPARSKIT version 2.0
      ilut, luson, and qsplit 
      (https://www-users.cse.umn.edu/~saad/software/SPARSKIT/)

    RCM - Reverse Cuthill McKee Ordering
      (https://people.math.sc.edu/Burkardt/f_src/rcm/rcm.html)

    BLAS - Basic Linear Algebra Subprograms Level 1
      (https://people.math.sc.edu/Burkardt/f_src/blas1_d/blas1_d.html)

    SPARSEKIT - Sparse Matrix Utility Package
      amux, dperm, dvperm, rperm, and cperm
      (https://people.sc.fsu.edu/~jburkardt/f77_src/sparsekit/sparsekit.html)

The following BSD-3 License libraries are used in this USGS product:

    Modern Fortran DAG Library
      Copyright (c) 2018, Jacob Williams
      All rights reserved.
      (https://github.com/jacobwilliams/daglib)

The following 2-clause BSD License library is used in this
USGS product:

    PETSc, the Portable, Extensible Toolkit for Scientific
    Computation Library
      Copyright (c) 1991-2021, UChicago Argonne, LLC
      and the PETSc Development Team All rights reserved.
      (https://petsc.org/release/)

MODFLOW 6 compiler options: -cpp -I src/libmf6core.a.p -I src -I ../src -I
src/libmf6_external.a.p -I
/home/mreno/.clone/external/petsc/arch-linux-c-debug/include -I
/home/mreno/.clone/external/petsc/include -I
/home/mreno/.clone/external/petsc/arch-linux-c-debug/lib -I
/home/mreno/miniconda3/envs/modflow6/include -I -fdiagnostics-color=always
-imultiarch x86_64-linux-gnu -D _FILE_OFFSET_BITS=64 -D __linux__ -D
__WITH_PETSC__ -D __WITH_MPI__ -D __WITH_NETCDF__ -mtune=generic
-march=x86-64 -g -O2 -Wall -Wpedantic -Wcharacter-truncation
-Wno-unused-dummy-argument -Wno-intrinsic-shadow -Wno-maybe-uninitialized
-Wno-uninitialized -std=f2008 -fall-intrinsics -fbacktrace -fcheck=all
-ffpe-trap=overflow,zero,invalid -ffpe-summary=overflow
-ffpe-trap=overflow,zero,invalid -fPIC -J src/libmf6core.a.p
-fpre-include=/usr/include/finclude/math-vector-fortran.h

System command used to initiate simulation:
/home/mreno/.clone/usgs/w/netcdf/2/modflow6/bin/mf6 -p

MODFLOW was compiled using uniform precision.

Real Variables
  KIND: 8
  TINY (smallest non-zero value):    2.225074-308
  HUGE (largest value):    1.797693+308
  PRECISION: 15
  SIZE IN BITS: 64

Integer Variables
  KIND: 4
  HUGE (largest value): 2147483647
  SIZE IN BITS: 32

Long Integer Variables
  KIND: 8
  HUGE (largest value): 9223372036854775807
  SIZE IN BITS: 64

Logical Variables
  KIND: 4
  SIZE IN BITS: 32


 OPENED mfsim.nam
 FILE TYPE:NAM6      UNIT 1001   STATUS:OLD                 
 FORMAT:FORMATTED              ACCESS:SEQUENTIAL          
 ACTION:READ                

 # File generated by Flopy version 3.5.0.dev0 on 10/26/2023 at 10:51:59.

 OPENED leftmodel.nam
 FILE TYPE:GWF6      UNIT 1002   STATUS:OLD                 
 FORMAT:FORMATTED              ACCESS:SEQUENTIAL          
 ACTION:READ                

 # File generated by Flopy version 3.5.0.dev0 on 10/26/2023 at 10:51:59.

 OPENED leftmodel.dis
 FILE TYPE:DIS6      UNIT 1003   STATUS:OLD                 
 FORMAT:FORMATTED              ACCESS:SEQUENTIAL          
 ACTION:READ                

 # File generated by Flopy version 3.5.0.dev0 on 10/26/2023 at 10:51:59.

 OPENED leftmodel.npf
 FILE TYPE:NPF6      UNIT 1004   STATUS:OLD                 
 FORMAT:FORMATTED              ACCESS:SEQUENTIAL          
 ACTION:READ                

 # File generated by Flopy version 3.5.0.dev0 on 10/26/2023 at 10:51:59.

 OPENED leftmodel.ic
 FILE TYPE:IC6       UNIT 1005   STATUS:OLD                 
 FORMAT:FORMATTED              ACCESS:SEQUENTIAL          
 ACTION:READ                


 OPENED leftmodel.oc
 FILE TYPE:OC6       UNIT 1006   STATUS:OLD                 
 FORMAT:FORMATTED              ACCESS:SEQUENTIAL          
 ACTION:READ                


 OPENED leftmodel.chd
 FILE TYPE:CHD6      UNIT 1007   STATUS:OLD                 
 FORMAT:FORMATTED              ACCESS:SEQUENTIAL          
 ACTION:READ                

 # File generated by Flopy version 3.5.0.dev0 on 10/26/2023 at 10:51:59.

 READING SIMULATION OPTIONS
    MAXIMUM NUMBER OF ERRORS THAT WILL BE STORED IS 1000
 END OF SIMULATION OPTIONS

 READING SIMULATION TIMING

 OPENED par_gwf01-1d.tdis
 FILE TYPE:TDIS   UNIT 1008   STATUS:OLD                 
 FORMAT:FORMATTED              ACCESS:SEQUENTIAL          
 ACTION:READ                


 TDIS -- TEMPORAL DISCRETIZATION PACKAGE,
 VERSION 1 : 11/13/2014 - INPUT READ FROM UNIT 1008
 # File generated by Flopy version 3.5.0.dev0 on 10/26/2023 at 10:51:59.
 PROCESSING TDIS OPTIONS
    SIMULATION TIME UNIT IS DAYS
 END OF TDIS OPTIONS
 PROCESSING TDIS DIMENSIONS
    1 STRESS PERIOD(S) IN SIMULATION
 END OF TDIS DIMENSIONS
 PROCESSING TDIS PERIODDATA


 STRESS PERIOD     LENGTH       TIME STEPS     MULTIPLIER FOR DELT
 ----------------------------------------------------------------------------
        1         1.000000          1                    1.000
 END OF TDIS PERIODDATA
 END OF SIMULATION TIMING

 READING SIMULATION MODELS
    GWF6 model 1 will be created
 END OF SIMULATION MODELS

 READING SIMULATION EXCHANGES
    GWF6-GWF6 exchange 1 will be created to connect model 1 with model 2
 END OF SIMULATION EXCHANGES

 READING SOLUTIONGROUP

 Creating solution: SLN_1           

 OPENED par_gwf01-1d.ims
 FILE TYPE:IMS   UNIT 1010   STATUS:OLD                 
 FORMAT:FORMATTED              ACCESS:SEQUENTIAL          
 ACTION:READ                

 END OF SOLUTIONGROUP

 Creating exchange: GWF-GWF_1       

 OPENED par_gwf01-1d.gwfgwf
 FILE TYPE:GWF-GWF   UNIT 1011   STATUS:OLD                 
 FORMAT:FORMATTED              ACCESS:SEQUENTIAL          
 ACTION:READ                

 # File generated by Flopy version 3.5.0.dev0 on 10/26/2023 at 10:51:59.
 PROCESSING GWF-GWF EXCHANGE OPTIONS
    AUXILIARY GWF_GWF_Exchange VARIABLE: ANGLDEGX        
    AUXILIARY GWF_GWF_Exchange VARIABLE: CDIST           
 END OF GWF-GWF EXCHANGE OPTIONS
 PROCESSING EXCHANGE DIMENSIONS
    NEXG = 1
 END OF EXCHANGE DIMENSIONS
 PROCESSING EXCHANGEDATA
 END OF EXCHANGEDATA

PROCESSING MODEL CONNECTIONS
 Created 1 model connections for solution SLN_1
END OF MODEL CONNECTIONS

 IMS -- ITERATIVE MODEL SOLUTION PACKAGE, VERSION 6, 4/28/2017
         INPUT READ FROM UNIT 1010
 # File generated by Flopy version 3.5.0.dev0 on 10/26/2023 at 10:51:59.

 PROCESSING IMS OPTIONS
 END OF IMS OPTIONS

 PROCESSING IMS NONLINEAR
 END OF IMS NONLINEAR DATA
 ***UNDER-RELAXATION WILL NOT BE USED***


 PROCESSING LINEAR DATA
 END OF LINEAR DATA

 PETSc Linear Solver will be used: version 3.19.2 (release)                                                                                                                

 An asymmetric matrix will be solved

 OUTER ITERATION CONVERGENCE CRITERION    (DVCLOSE) =    0.100000E-07
 MAXIMUM NUMBER OF OUTER ITERATIONS        (MXITER) = 100
 SOLVER PRINTOUT INDEX                     (IPRIMS) = 2
 NONLINEAR ITERATION METHOD            (NONLINMETH) = 0
 LINEAR SOLUTION METHOD                   (LINMETH) = 2

       PETSc linear solver settings: 
 ------------------------------------------------------------------
 Linear acceleration method:   bcgs
 Preconditioner type:          bjacobi
 Sub-preconditioner type:      ilu
 Maximum nr. of iterations:    300
 Dep. var. closure criterion:  0.10000E-07


    Solving:  Stress period:     1    Time step:     1

1
                            STRESS PERIOD NO. 1, LENGTH =   1.000000    
                            -----------------------------------------------
                            NUMBER OF TIME STEPS = 1
                            MULTIPLIER FOR DELT =     1.000
                            INITIAL TIME STEP SIZE =   1.000000    

 SLN_1 OUTER ITERATION SUMMARY
 ----------------------------------------------------------------------------------------------------------
                                OUTER      INNER                    STEP   MAXIMUM CHANGE MODEL-(CELLID) OR
 OUTER ITERATION STEP       ITERATION  ITERATION  MAXIMUM CHANGE SUCCESS             MODEL-PACKAGE-(NUMBER)
 ----------------------------------------------------------------------------------------------------------
 Model                              1          4       5.0000000                              1_GWF-(1,1,5)
 Model                              2          1  8.88178420E-16       *                      1_GWF-(1,1,5)
 ----------------------------------------------------------------------------------------------------------


 2 CALLS TO NUMERICAL SOLUTION IN TIME STEP 1 STRESS PERIOD 1
 5 TOTAL ITERATIONS

 SLN_1 INNER ITERATION SUMMARY
 --------------------------------------------------------------------------------------------------------------------------------------
      TOTAL      OUTER      INNER                                                            MAXIMUM                                   
  ITERATION  ITERATION  ITERATION  MAXIMUM CHANGE      MAXIMUM CHANGE MODEL-(CELLID)        RESIDUAL    MAXIMUM RESIDUAL MODEL-(CELLID)
 --------------------------------------------------------------------------------------------------------------------------------------
          1          1          1       1.2168179                      1_GWF-(1,1,5)       101.03737                      1_GWF-(1,1,2)
          2          1          2       1.5885391                      1_GWF-(1,1,5)       36.318094                      1_GWF-(1,1,5)
          3          1          3       2.1946429                      1_GWF-(1,1,5)       49.061180                      1_GWF-(1,1,5)
          4          1          4  8.88178420E-16                      1_GWF-(1,1,5)       0.0000000                      1_GWF-(1,1,5)
          5          2          1  8.88178420E-16                      1_GWF-(1,1,4)  5.68434189E-14                      1_GWF-(1,1,3)
 --------------------------------------------------------------------------------------------------------------------------------------




 Solution SLN_1 summary
 ----------------------------------------------------------------------
 Total formulate time:  0.41700000000000070E-3 seconds
 Total solution time:   0.99699999999999789E-3 seconds


 MEMORY MANAGER TOTAL STORAGE BY DATA TYPE, IN KILOBYTES
 -------------------------------
                    ALLOCATED   
 DATA TYPE           MEMORY     
 -------------------------------
 Character        6.2950000     
 Logical          5.20000000E-02
 Integer          364.18800     
 Real             483.14400     
 -------------------------------
 Total            853.67900     
 Virtual          0.59200000    
 -------------------------------



 Run end date and time (yyyy/mm/dd hh:mm:ss): 2023/10/26 10:52:00
 Elapsed run time:  0.014 Seconds
 Normal termination of simulation.
