netcdf rch {
dimensions:
	lencharstr = 300 ;
	nper = 1 ;
	nlay = 2 ;
	nrow = 4 ;
	ncol = 5 ;
	nodes = 40 ;
	ncpl = 20 ;
	ncelldim = 3 ;
	chd_0_maxbound = 1 ;
	chd_0_niper = 1 ;
	rcha_0_niper = 1 ;
variables:
	int dis_nlay ;
		dis_nlay:mf6_input = "DIS6:RCH/DIS/NLAY" ;
	int dis_nrow ;
		dis_nrow:mf6_input = "DIS6:RCH/DIS/NROW" ;
	int dis_ncol ;
		dis_ncol:mf6_input = "DIS6:RCH/DIS/NCOL" ;
	double dis_delr(ncol) ;
		dis_delr:_FillValue = 3.e+30 ;
		dis_delr:mf6_input = "DIS6:RCH/DIS/DELR" ;
	double dis_delc(nrow) ;
		dis_delc:_FillValue = 3.e+30 ;
		dis_delc:mf6_input = "DIS6:RCH/DIS/DELC" ;
	double dis_top(nrow, ncol) ;
		dis_top:_FillValue = 3.e+30 ;
		dis_top:mf6_input = "DIS6:RCH/DIS/TOP" ;
	double dis_botm(nlay, nrow, ncol) ;
		dis_botm:_FillValue = 3.e+30 ;
		dis_botm:mf6_input = "DIS6:RCH/DIS/BOTM" ;
	int dis_idomain(nlay, nrow, ncol) ;
		dis_idomain:_FillValue = -2147483647 ;
		dis_idomain:mf6_input = "DIS6:RCH/DIS/IDOMAIN" ;
	int npf_save_flows ;
		npf_save_flows:mf6_input = "NPF6:RCH/NPF/SAVE_FLOWS" ;
	int npf_icelltype(nlay, nrow, ncol) ;
		npf_icelltype:_FillValue = -2147483647 ;
		npf_icelltype:mf6_input = "NPF6:RCH/NPF/ICELLTYPE" ;
	double npf_k(nlay, nrow, ncol) ;
		npf_k:_FillValue = 3.e+30 ;
		npf_k:mf6_input = "NPF6:RCH/NPF/K" ;
	int chd_0_maxbound ;
		chd_0_maxbound:mf6_input = "CHD6:RCH/CHD_0/MAXBOUND" ;
	int chd_0_iper(chd_0_niper) ;
		chd_0_iper:mf6_package = "CHD_0" ;
		chd_0_iper:mf6_iper = 1LL ;
	int chd_0_cellid(chd_0_niper, chd_0_maxbound, ncelldim) ;
		chd_0_cellid:_FillValue = -2147483647 ;
		chd_0_cellid:mf6_input = "CHD6:RCH/CHD_0/CELLID" ;
	double chd_0_head(chd_0_niper, chd_0_maxbound) ;
		chd_0_head:_FillValue = 3.e+30 ;
		chd_0_head:mf6_input = "CHD6:RCH/CHD_0/HEAD" ;
	int rcha_0_readasarrays ;
		rcha_0_readasarrays:mf6_input = "RCHA6:RCH/RCHA_0/READASARRAYS" ;
	int rcha_0_print_flows ;
		rcha_0_print_flows:mf6_input = "RCHA6:RCH/RCHA_0/PRINT_FLOWS" ;
	int rcha_0_iper(rcha_0_niper) ;
		rcha_0_iper:mf6_package = "RCHA_0" ;
		rcha_0_iper:mf6_iper = 1LL ;
	double rcha_0_recharge_griddata(rcha_0_niper, nlay, nrow, ncol) ;
		rcha_0_recharge_griddata:_FillValue = 3.e+30 ;
		rcha_0_recharge_griddata:mf6_input = "RCHA6:RCH/RCHA_0/RECHARGE" ;
		rcha_0_recharge_griddata:mf6_griddata = 1LL ;

// global attributes:
		:description = "MODFLOW 6 NetCDF4 file prototype" ;
		:history = "Created Thu Oct 26 08:52:16 2023" ;
		:source = "mf6netcdf4.py" ;
		:mf6_modeltype = "GWF6" ;
		:mf6_modelname = "RCH" ;
		:Conventions = "CF-1.8" ;
data:

 dis_nlay = 2 ;

 dis_nrow = 4 ;

 dis_ncol = 5 ;

 dis_delr = 1, 1, 1, 1, 1 ;

 dis_delc = 1, 1, 1, 1 ;

 dis_top =
  100, 100, 100, 100, 100,
  100, 100, 100, 100, 100,
  100, 100, 100, 100, 100,
  100, 100, 100, 100, 100 ;

 dis_botm =
  50, 50, 50, 50, 50,
  50, 50, 50, 50, 50,
  50, 50, 50, 50, 50,
  50, 50, 50, 50, 50,
  0, 0, 0, 0, 0,
  0, 0, 0, 0, 0,
  0, 0, 0, 0, 0,
  0, 0, 0, 0, 0 ;

 dis_idomain =
  0, 0, 0, 0, 0,
  0, -1, 1, -1, 0,
  0, -1, 1, -1, 0,
  0, 0, 0, 0, 0,
  1, 1, 1, 1, 1,
  1, 1, 1, -1, 1,
  1, 1, 1, 1, 1,
  1, 1, 1, 1, 1 ;

 npf_save_flows = 1 ;

 npf_icelltype =
  0, 0, 0, 0, 0,
  0, 0, 0, 0, 0,
  0, 0, 0, 0, 0,
  0, 0, 0, 0, 0,
  0, 0, 0, 0, 0,
  0, 0, 0, 0, 0,
  0, 0, 0, 0, 0,
  0, 0, 0, 0, 0 ;

 npf_k =
  1, 1, 1, 1, 1,
  1, 1, 1, 1, 1,
  1, 1, 1, 1, 1,
  1, 1, 1, 1, 1,
  1, 1, 1, 1, 1,
  1, 1, 1, 1, 1,
  1, 1, 1, 1, 1,
  1, 1, 1, 1, 1 ;

 chd_0_maxbound = 1 ;

 chd_0_iper = 1 ;

 chd_0_cellid =
  2, 1, 1 ;

 chd_0_head =
  100 ;

 rcha_0_readasarrays = 1 ;

 rcha_0_print_flows = 1 ;

 rcha_0_iper = 1 ;

 rcha_0_recharge_griddata =
  _, 2, 3, 4, 5,
  6, _, 8, _, 10,
  11, _, 13, _, 15,
  16, 17, 18, 19, 20,
  1, _, _, _, _,
  _, 7, _, 9, _,
  _, 12, _, 14, _,
  _, _, _, _, _ ;
}
