                             MODFLOW 6 PROFESSIONAL
                U.S. GEOLOGICAL SURVEY MODULAR HYDROLOGIC MODEL
                          GROUNDWATER FLOW MODEL (GWF)
                  VERSION 6.5.0.dev0 (preliminary) 07/13/2023
                               ***DEVELOP MODE***

        MODFLOW 6 compiled Oct 30 2023 08:23:02 with GCC version 11.3.0

This software is preliminary or provisional and is subject to 
revision. It is being provided to meet the need for timely best 
science. The software has not received final approval by the U.S. 
Geological Survey (USGS). No warranty, expressed or implied, is made 
by the USGS or the U.S. Government as to the functionality of the 
software and related material nor shall the fact of release 
constitute any such warranty. The software is provided on the 
condition that neither the USGS nor the U.S. Government shall be held 
liable for any damages resulting from the authorized or unauthorized 
use of the software.


As a work of the United States Government, this USGS product is 
in the public domain within the United States. You can copy, 
modify, distribute, and perform the work, even for commercial 
purposes, all without asking permission. Additionally, USGS 
waives copyright and related rights in the work worldwide 
through CC0 1.0 Universal Public Domain Dedication 
(https://creativecommons.org/publicdomain/zero/1.0/).

The following GNU Lesser General Public License (LGPL) libraries
are used in this USGS product:

    SPARSKIT version 2.0
      ilut, luson, and qsplit 
      (https://www-users.cse.umn.edu/~saad/software/SPARSKIT/)

    RCM - Reverse Cuthill McKee Ordering
      (https://people.math.sc.edu/Burkardt/f_src/rcm/rcm.html)

    BLAS - Basic Linear Algebra Subprograms Level 1
      (https://people.math.sc.edu/Burkardt/f_src/blas1_d/blas1_d.html)

    SPARSEKIT - Sparse Matrix Utility Package
      amux, dperm, dvperm, rperm, and cperm
      (https://people.sc.fsu.edu/~jburkardt/f77_src/sparsekit/sparsekit.html)

The following BSD-3 License libraries are used in this USGS product:

    Modern Fortran DAG Library
      Copyright (c) 2018, Jacob Williams
      All rights reserved.
      (https://github.com/jacobwilliams/daglib)

The following 2-clause BSD License library is used in this
USGS product:

    PETSc, the Portable, Extensible Toolkit for Scientific
    Computation Library
      Copyright (c) 1991-2021, UChicago Argonne, LLC
      and the PETSc Development Team All rights reserved.
      (https://petsc.org/release/)

MODFLOW 6 compiler options: -cpp -I src/libmf6core.a.p -I src -I ../src -I
src/libmf6_external.a.p -I
/home/mreno/.clone/external/petsc/arch-linux-c-debug/include -I
/home/mreno/.clone/external/petsc/include -I
/home/mreno/.clone/external/petsc/arch-linux-c-debug/lib -I
/home/mreno/miniconda3/envs/modflow6/include -I -fdiagnostics-color=always
-imultiarch x86_64-linux-gnu -D _FILE_OFFSET_BITS=64 -D __linux__ -D
__WITH_PETSC__ -D __WITH_MPI__ -D __WITH_NETCDF__ -mtune=generic
-march=x86-64 -g -O2 -Wall -Wpedantic -Wcharacter-truncation
-Wno-unused-dummy-argument -Wno-intrinsic-shadow -Wno-maybe-uninitialized
-Wno-uninitialized -std=f2008 -fall-intrinsics -fbacktrace -fcheck=all
-ffpe-trap=overflow,zero,invalid -ffpe-summary=overflow
-ffpe-trap=overflow,zero,invalid -fPIC -J src/libmf6core.a.p
-fpre-include=/usr/include/finclude/math-vector-fortran.h

System command used to initiate simulation:
/home/mreno/.clone/usgs/w/netcdf/2/modflow6/bin/mf6

MODFLOW was compiled using uniform precision.

Real Variables
  KIND: 8
  TINY (smallest non-zero value):    2.225074-308
  HUGE (largest value):    1.797693+308
  PRECISION: 15
  SIZE IN BITS: 64

Integer Variables
  KIND: 4
  HUGE (largest value): 2147483647
  SIZE IN BITS: 32

Long Integer Variables
  KIND: 8
  HUGE (largest value): 9223372036854775807
  SIZE IN BITS: 64

Logical Variables
  KIND: 4
  SIZE IN BITS: 32

 NAMEFILE OPTIONS:
 END NAMEFILE OPTIONS:

 DIS -- STRUCTURED GRID DISCRETIZATION PACKAGE, VERSION 2 : 3/27/2014 - INPUT READ FROM MEMPATH: __INPUT__/GWF1/DIS                                


 NPF -- NODE PROPERTY FLOW PACKAGE, VERSION 1, 3/30/2015 INPUT READ FROM MEMPATH: __INPUT__/GWF1/NPF                                

 Setting Discretization Options
 End Setting Discretization Options

 Setting Discretization Dimensions
    NLAY = 3
    NROW = 10
    NCOL = 5
 End Setting Discretization Dimensions

 Setting Discretization Griddata
    DELR set from input file
    DELC set from input file
    TOP set from input file
    BOTM set from input file
 End Setting Discretization Griddata

 Setting NPF Options
    Cell-by-cell flow information will be saved to binary file whenever ICBCFL is not zero.
    Rewetting is active.
    Wetting factor (WETFCT) has been set to:     1.00000    
    Wetting iteration interval (IWETIT) has been set to:     1
    Head rewet equation (IHDWET) has been set to:     1
 End Setting NPF Options

 Setting NPF Griddata
    ICELLTYPE set from input file
    K set from input file
    K33 not provided.  Setting K33 = K.
    K22 not provided.  Setting K22 = K.
    WETDRY set from input file
 End Setting NPF Griddata


 CHD   -- CHD PACKAGE, VERSION 8, 2/22/2014 INPUT READ FROM MEMPATH: __INPUT__/GWF1/CHD2                               

 PROCESSING CHD BASE OPTIONS
    FLOWS WILL BE SAVED TO BUDGET FILE SPECIFIED IN OUTPUT CONTROL
    LISTS OF CHD CELLS WILL BE PRINTED.
 END OF CHD BASE OPTIONS

 PROCESSING CHD BASE DIMENSIONS
    MAXBOUND =      10
 END OF CHD BASE DIMENSIONS

 IC -- INITIAL CONDITIONS PACKAGE, VERSION 8, 3/28/2015 INPUT READ FROM UNIT 1006
 # File generated by Flopy version 3.5.0.dev0 on 10/30/2023 at 09:20:40.
 PROCESSING GRIDDATA

     INITIAL HEAD =  -40.00000    
 END PROCESSING GRIDDATA

 CELL CONVERSIONS FOR ITER.=0  STEP=0  PERIOD=0   (NODE or LRC)
     DRY             (1,1,1) DRY             (1,1,2) DRY             (1,1,3) DRY             (1,1,4) DRY             (1,1,5)
     DRY             (1,2,1) DRY             (1,2,2) DRY             (1,2,3) DRY             (1,2,4) DRY             (1,2,5)
     DRY             (1,3,1) DRY             (1,3,2) DRY             (1,3,3) DRY             (1,3,4) DRY             (1,3,5)
     DRY             (1,4,1) DRY             (1,4,2) DRY             (1,4,3) DRY             (1,4,4) DRY             (1,4,5)
     DRY             (1,5,1) DRY             (1,5,2) DRY             (1,5,3) DRY             (1,5,4) DRY             (1,5,5)
     DRY             (1,6,1) DRY             (1,6,2) DRY             (1,6,3) DRY             (1,6,4) DRY             (1,6,5)
     DRY             (1,7,1) DRY             (1,7,2) DRY             (1,7,3) DRY             (1,7,4) DRY             (1,7,5)
     DRY             (1,8,1) DRY             (1,8,2) DRY             (1,8,3) DRY             (1,8,4) DRY             (1,8,5)
     DRY             (1,9,1) DRY             (1,9,2) DRY             (1,9,3) DRY             (1,9,4) DRY             (1,9,5)
     DRY            (1,10,1) DRY            (1,10,2) DRY            (1,10,3) DRY            (1,10,4) DRY            (1,10,5)
     DRY             (2,1,1) DRY             (2,1,2) DRY             (2,1,3) DRY             (2,1,4) DRY             (2,1,5)
     DRY             (2,2,1) DRY             (2,2,2) DRY             (2,2,3) DRY             (2,2,4) DRY             (2,2,5)
     DRY             (2,3,1) DRY             (2,3,2) DRY             (2,3,3) DRY             (2,3,4) DRY             (2,3,5)
     DRY             (2,4,1) DRY             (2,4,2) DRY             (2,4,3) DRY             (2,4,4) DRY             (2,4,5)
     DRY             (2,5,1) DRY             (2,5,2) DRY             (2,5,3) DRY             (2,5,4) DRY             (2,5,5)
     DRY             (2,6,1) DRY             (2,6,2) DRY             (2,6,3) DRY             (2,6,4) DRY             (2,6,5)
     DRY             (2,7,1) DRY             (2,7,2) DRY             (2,7,3) DRY             (2,7,4) DRY             (2,7,5)
     DRY             (2,8,1) DRY             (2,8,2) DRY             (2,8,3) DRY             (2,8,4) DRY             (2,8,5)
     DRY             (2,9,1) DRY             (2,9,2) DRY             (2,9,3) DRY             (2,9,4) DRY             (2,9,5)
     DRY            (2,10,1) DRY            (2,10,2) DRY            (2,10,3) DRY            (2,10,4) DRY            (2,10,5)
    BINARY GRID INFORMATION WILL BE WRITTEN TO:
      UNIT NUMBER: 1016
      FILE NAME: gwf1.nc.grb

 OPENED gwf1.nc.grb
 FILE TYPE:DATA(BINARY)   UNIT 1016   STATUS:REPLACE             
 FORMAT:UNFORMATTED            ACCESS:STREAM              
 ACTION:READWRITE           

      THE LAST TIME STEP WILL BE PRINTED
      THE LAST TIME STEP WILL BE PRINTED
 # File generated by Flopy version 3.5.0.dev0 on 10/30/2023 at 09:20:40.

 PROCESSING OC OPTIONS

    BUDGET INFORMATION WILL BE WRITTEN TO:
      UNIT NUMBER: 1017
      FILE NAME: gwf1.cbc

 OPENED gwf1.cbc
 FILE TYPE:DATA(BINARY)   UNIT 1017   STATUS:REPLACE             
 FORMAT:UNFORMATTED            ACCESS:STREAM              
 ACTION:READWRITE           

    HEAD INFORMATION WILL BE WRITTEN TO:
      UNIT NUMBER: 1018
      FILE NAME: gwf1.hds

 OPENED gwf1.hds
 FILE TYPE:DATA(BINARY)   UNIT 1018   STATUS:REPLACE             
 FORMAT:UNFORMATTED            ACCESS:STREAM              
 ACTION:READWRITE           

 END OF OC OPTIONS

start timestep kper="1" kstp="1" mode="normal"


 BEGIN READING OUTPUT CONTROL FOR STRESS PERIOD 1
      THE LAST TIME STEP WILL BE SAVED
      THE LAST TIME STEP WILL BE PRINTED
      THE LAST TIME STEP WILL BE PRINTED

 END READING OUTPUT CONTROL FOR STRESS PERIOD 1
 ---------------------------------------------------
  CHD NO.    LAYER    ROW     COL         HEAD      
 ---------------------------------------------------
     1         3       1       5    -40.0000000     
     2         3       2       5    -40.0000000     
     3         3       3       5    -40.0000000     
     4         3       4       5    -40.0000000     
     5         3       5       5    -40.0000000     
     6         3       6       5    -40.0000000     
     7         3       7       5    -40.0000000     
     8         3       8       5    -40.0000000     
     9         3       9       5    -40.0000000     
     10        3      10       5    -40.0000000     
 ---------------------------------------------------



 CELL CONVERSIONS FOR ITER.=2  STEP=1  PERIOD=1   (NODE or LRC)
     WET             (2,1,1) WET             (2,2,1) WET             (2,3,1) WET             (2,4,1) WET             (2,5,1)
     WET             (2,6,1) WET             (2,7,1) WET             (2,8,1) WET             (2,9,1) WET            (2,10,1)

 CELL CONVERSIONS FOR ITER.=3  STEP=1  PERIOD=1   (NODE or LRC)
     WET             (2,1,2) WET             (2,1,3) WET             (2,2,2) WET             (2,2,3) WET             (2,3,2)
     WET             (2,3,3) WET             (2,4,2) WET             (2,4,3) WET             (2,5,2) WET             (2,5,3)
     WET             (2,6,2) WET             (2,6,3) WET             (2,7,2) WET             (2,7,3) WET             (2,8,2)
     WET             (2,8,3) WET             (2,9,2) WET             (2,9,3) WET            (2,10,2) WET            (2,10,3)

 CELL CONVERSIONS FOR ITER.=5  STEP=1  PERIOD=1   (NODE or LRC)
     WET             (2,1,4) WET             (2,2,4) WET             (2,3,4) WET             (2,4,4) WET             (2,5,4)
     WET             (2,6,4) WET             (2,7,4) WET             (2,8,4) WET             (2,9,4) WET            (2,10,4)

 SLN_1 INNER ITERATION SUMMARY
 --------------------------------------------------------------------------------------------------------------------------------------
      TOTAL      OUTER      INNER                                                            MAXIMUM                                   
  ITERATION  ITERATION  ITERATION  MAXIMUM CHANGE      MAXIMUM CHANGE MODEL-(CELLID)        RESIDUAL    MAXIMUM RESIDUAL MODEL-(CELLID)
 --------------------------------------------------------------------------------------------------------------------------------------
          1          1          1       74.041610                     2_GWF-(3,10,1)       1480.4690                     2_GWF-(3,10,2)
          2          1          2      -27.015584                     2_GWF-(3,10,1)      -811.64285                      2_GWF-(3,1,2)
          3          1          3       11.373184                      2_GWF-(3,1,2)      -462.47163                      2_GWF-(3,1,4)
          4          1          4       2.7160683                      2_GWF-(3,1,3)      -147.59510                      2_GWF-(3,1,4)
          5          1          5      0.83066826                      2_GWF-(3,2,1)      -45.401380                      2_GWF-(3,2,2)
          6          1          6      0.32669725                      2_GWF-(3,2,2)       13.174129                      2_GWF-(3,3,2)
          7          1          7  8.27673968E-02                      2_GWF-(3,6,1)       4.2610569                      2_GWF-(3,3,2)
          8          1          8  2.32215440E-02                      2_GWF-(3,2,3)      -1.5205220                      2_GWF-(3,9,4)
          9          1          9  8.48345870E-03                      2_GWF-(3,3,1)      0.52057757                      2_GWF-(3,4,1)
         10          1         10 -2.48123885E-03                     2_GWF-(3,10,3) -8.46719383E-02                      2_GWF-(3,8,1)
         11          1         11  9.32907335E-04                      2_GWF-(3,8,1) -2.78064499E-02                      2_GWF-(3,2,3)
         12          1         12  1.55697350E-04                      2_GWF-(3,1,2) -9.05624422E-03                     2_GWF-(3,10,3)
         13          1         13 -3.28110351E-05                      2_GWF-(3,5,3)  1.85556200E-03                      2_GWF-(3,7,3)
         14          2          1       47.362611                      2_GWF-(2,3,1)      -2739.0145                      2_GWF-(3,2,4)
         15          2          2      -20.058182                      2_GWF-(3,3,1)       1773.2310                      2_GWF-(3,1,1)
         16          2          3      -6.5178223                      2_GWF-(3,1,1)       780.70242                      2_GWF-(3,1,2)
         17          2          4      -2.3273881                      2_GWF-(3,1,3)      -227.98216                      2_GWF-(3,2,2)
         18          2          5     -0.41582008                      2_GWF-(3,1,4)       91.954482                      2_GWF-(3,2,1)
         19          2          6     -0.20474797                      2_GWF-(3,3,2)       41.987285                      2_GWF-(3,2,1)
         20          2          7 -5.24116342E-02                      2_GWF-(2,2,1)      -7.3055541                      2_GWF-(3,7,2)
         21          2          8 -1.10286109E-02                      2_GWF-(2,9,1)       1.3876137                      2_GWF-(3,7,2)
         22          2          9  3.85729594E-03                     2_GWF-(3,10,1)      0.92643410                      2_GWF-(3,3,1)
         23          2         10 -1.17746562E-03                     2_GWF-(2,10,1)     -0.19780056                      2_GWF-(3,4,1)
         24          2         11 -3.67721217E-04                      2_GWF-(3,1,2)  7.32683634E-02                      2_GWF-(3,5,2)
         25          2         12  8.41337966E-05                      2_GWF-(3,4,3) -1.73316737E-02                      2_GWF-(3,9,2)
         26          2         13 -2.01178467E-05                      2_GWF-(3,7,4) -3.07687175E-03                      2_GWF-(3,8,2)
         27          3          1       39.245278                     2_GWF-(2,10,2)      -3424.1871                      2_GWF-(3,1,1)
         28          3          2      -13.483426                      2_GWF-(3,8,1)       2219.7541                      2_GWF-(3,2,1)
         29          3          3      -4.8609860                     2_GWF-(2,10,1)       1024.5720                      2_GWF-(3,1,1)
         30          3          4      -2.2737700                      2_GWF-(3,1,1)       462.95446                      2_GWF-(3,1,1)
         31          3          5     -0.89816012                      2_GWF-(2,1,1)      -166.80132                     2_GWF-(3,10,2)
         32          3          6     -0.18601541                      2_GWF-(3,1,4)      -68.684015                     2_GWF-(3,10,2)
         33          3          7 -6.77048340E-02                      2_GWF-(2,4,1)      -34.837782                      2_GWF-(3,4,1)
         34          3          8 -3.76209477E-02                      2_GWF-(3,9,3)       15.112862                     2_GWF-(2,10,1)
         35          3          9 -1.81418059E-02                     2_GWF-(3,10,3)       6.8111359                     2_GWF-(2,10,1)
         36          3         10 -5.66858631E-03                     2_GWF-(2,10,1)       3.1346443                     2_GWF-(2,10,1)
         37          3         11 -2.64879399E-03                      2_GWF-(3,7,4)      -1.0415632                      2_GWF-(3,5,1)
         38          3         12  8.30295091E-04                      2_GWF-(2,1,2)     -0.40585124                     2_GWF-(3,10,1)
         39          3         13  4.81895517E-04                      2_GWF-(2,1,2)      0.19737882                      2_GWF-(3,1,1)
         40          3         14  1.34326180E-04                      2_GWF-(2,1,3)  7.53313802E-02                      2_GWF-(3,1,1)
         41          3         15  6.70305569E-05                      2_GWF-(2,1,3)  2.57582455E-02                     2_GWF-(2,10,1)
         42          3         16  1.83052858E-05                      2_GWF-(3,2,2) -8.22095473E-03                      2_GWF-(3,9,1)
         43          4          1       9.5919751                      2_GWF-(2,2,3)      -5194.2059                      2_GWF-(3,4,1)
         44          4          2       7.0638614                      2_GWF-(3,5,1)      -2888.4882                      2_GWF-(3,2,1)
         45          4          3       3.2366368                     2_GWF-(3,10,1)      -1049.4147                      2_GWF-(3,1,1)
         46          4          4     -0.97285482                      2_GWF-(2,9,2)      -444.64742                      2_GWF-(3,1,1)
         47          4          5     -0.46478818                     2_GWF-(2,10,2)       191.39593                     2_GWF-(2,10,2)
         48          4          6     -0.27117995                     2_GWF-(2,10,2)      -91.153130                      2_GWF-(3,9,2)
         49          4          7 -8.35357058E-02                      2_GWF-(2,4,3)      -43.926596                      2_GWF-(3,1,2)
         50          4          8 -4.40604901E-02                      2_GWF-(2,8,1)      -17.585901                     2_GWF-(3,10,2)
         51          4          9 -2.33614765E-02                      2_GWF-(3,6,4)      -8.5740788                      2_GWF-(3,8,3)
         52          4         10 -7.76832489E-03                      2_GWF-(3,9,4)      -4.1577371                      2_GWF-(2,2,1)
         53          4         11 -2.46496375E-03                     2_GWF-(2,10,1)      -1.8045254                      2_GWF-(3,9,3)
         54          4         12 -1.27371901E-03                      2_GWF-(3,7,4)      0.92709635                     2_GWF-(2,10,3)
         55          4         13  8.37609054E-04                      2_GWF-(2,1,3)      0.44721749                      2_GWF-(3,2,1)
         56          4         14  3.44679065E-04                      2_GWF-(2,1,3)      0.16995896                     2_GWF-(2,10,3)
         57          4         15 -1.07205965E-04                     2_GWF-(2,10,3)  7.25859279E-02                     2_GWF-(2,10,3)
         58          4         16 -3.09666706E-05                     2_GWF-(2,10,3)  2.91063536E-02                     2_GWF-(2,10,3)
         59          4         17 -1.16783621E-05                      2_GWF-(3,9,4) -1.10562921E-02                      2_GWF-(3,9,3)
         60          4         18 -3.90915483E-06                      2_GWF-(3,9,4) -5.02987111E-03                      2_GWF-(2,2,1)
         61          5          1       4.6320162                      2_GWF-(2,2,4)       2499.2649                      2_GWF-(3,9,4)
         62          5          2      0.84177365                     2_GWF-(2,10,1)      -428.67933                      2_GWF-(3,6,2)
         63          5          3      0.67685824                      2_GWF-(3,4,1)      -279.84332                      2_GWF-(3,2,2)
         64          5          4     -0.16525872                      2_GWF-(2,7,3)      -112.56720                      2_GWF-(3,1,2)
         65          5          5     -0.13172044                      2_GWF-(2,9,3)      -41.846133                      2_GWF-(3,1,2)
         66          5          6 -5.50007973E-02                     2_GWF-(2,10,3)      -19.625327                      2_GWF-(3,1,2)
         67          5          7 -2.83540220E-02                     2_GWF-(2,10,3)      -11.853134                      2_GWF-(3,9,1)
         68          5          8 -1.51094680E-02                      2_GWF-(2,4,2)      -5.7722182                      2_GWF-(3,2,1)
         69          5          9 -6.72243716E-03                      2_GWF-(3,1,4)       3.1995062                      2_GWF-(3,9,4)
         70          5         10 -2.68262796E-03                      2_GWF-(3,6,4)      -1.2198856                      2_GWF-(3,1,3)
         71          5         11  1.07322871E-03                      2_GWF-(2,1,3)      0.58304964                      2_GWF-(3,1,2)
         72          5         12  4.14902994E-04                      2_GWF-(2,1,3)      0.28749612                      2_GWF-(3,1,2)
         73          5         13  1.55431503E-04                      2_GWF-(2,1,3)      0.13025541                     2_GWF-(2,10,3)
         74          5         14 -1.21067864E-04                     2_GWF-(2,10,2)  6.61435153E-02                     2_GWF-(2,10,3)
         75          5         15  2.25365593E-05                      2_GWF-(3,9,1)  3.24881176E-02                     2_GWF-(2,10,3)
         76          5         16 -1.21147200E-05                     2_GWF-(2,10,3)  1.13725495E-02                     2_GWF-(2,10,3)
         77          5         17 -4.59566210E-06                      2_GWF-(3,9,4)  2.90447404E-03                      2_GWF-(3,9,4)
         78          6          1      -1.4360083                     2_GWF-(2,10,3)       643.62798                      2_GWF-(2,1,3)
         79          6          2     -0.35113611                      2_GWF-(2,1,3)       476.00894                      2_GWF-(2,1,3)
         80          6          3      0.28213842                     2_GWF-(2,10,4)      -369.24847                      2_GWF-(3,2,3)
         81          6          4      0.28788252                     2_GWF-(2,10,4)      -203.40745                      2_GWF-(3,2,3)
         82          6          5      0.14455817                     2_GWF-(2,10,4)      -90.592555                      2_GWF-(3,1,3)
         83          6          6  2.96008967E-02                     2_GWF-(2,10,4)       55.998667                     2_GWF-(2,10,3)
         84          6          7  1.24465049E-02                     2_GWF-(2,10,4)       40.740411                     2_GWF-(2,10,3)
         85          6          8  1.08808354E-02                      2_GWF-(3,1,3)       21.543892                     2_GWF-(2,10,3)
         86          6          9  3.58206273E-03                      2_GWF-(2,2,2)       9.3647952                     2_GWF-(2,10,3)
         87          6         10 -1.08167820E-03                      2_GWF-(2,5,3)       4.7847551                     2_GWF-(2,10,3)
         88          6         11 -9.37141345E-04                     2_GWF-(2,10,2)      -2.1968424                     2_GWF-(3,10,3)
         89          6         12 -4.78356641E-04                      2_GWF-(2,1,3)      -1.1068275                     2_GWF-(3,10,3)
         90          6         13 -2.34142061E-04                      2_GWF-(2,1,3)     -0.41328142                     2_GWF-(3,10,3)
         91          6         14 -7.10707745E-05                     2_GWF-(2,10,4)     -0.16770612                     2_GWF-(3,10,3)
         92          6         15 -2.90869650E-05                     2_GWF-(2,10,4) -6.07390157E-02                     2_GWF-(3,10,3)
         93          6         16 -1.58717879E-05                     2_GWF-(2,10,4) -1.88713811E-02                     2_GWF-(3,10,3)
         94          6         17  4.66238229E-06                     2_GWF-(3,10,1) -6.31648417E-03                     2_GWF-(3,10,3)
         95          7          1     -0.25834511                      2_GWF-(2,4,3)       131.69953                      2_GWF-(2,1,3)
         96          7          2     -0.11117794                     2_GWF-(2,10,3)       89.033618                      2_GWF-(2,1,3)
         97          7          3 -4.28954779E-02                     2_GWF-(3,10,1)      -66.139552                      2_GWF-(3,2,3)
         98          7          4 -2.40221929E-02                      2_GWF-(2,1,3)      -40.134773                      2_GWF-(3,2,3)
         99          7          5 -1.42635742E-02                      2_GWF-(2,1,3)      -16.159400                      2_GWF-(3,2,3)
        100          7          6  2.54866145E-03                     2_GWF-(2,10,4)       9.0227291                      2_GWF-(2,2,3)
        101          7          7  1.56091183E-03                      2_GWF-(3,1,3)       5.8000317                      2_GWF-(2,2,3)
        102          7          8  2.23823194E-03                      2_GWF-(3,1,3)       2.0951578                     2_GWF-(2,10,3)
        103          7          9  6.00579348E-04                      2_GWF-(2,2,2)      0.77862967                     2_GWF-(2,10,3)
        104          7         10  1.66993638E-04                      2_GWF-(2,2,2)     -0.39144039                     2_GWF-(3,10,3)
        105          7         11  1.45733153E-04                      2_GWF-(2,9,1)     -0.18471877                     2_GWF-(3,10,3)
        106          7         12  3.72523858E-05                      2_GWF-(2,7,4) -8.46348760E-02                     2_GWF-(3,10,3)
        107          7         13  2.51883379E-05                      2_GWF-(2,8,2) -2.82086325E-02                     2_GWF-(3,10,3)
        108          7         14 -7.39654092E-06                     2_GWF-(2,10,4) -1.04184419E-02                     2_GWF-(3,10,3)
        109          7         15 -4.34288755E-06                      2_GWF-(3,3,1) -4.55482379E-03                     2_GWF-(3,10,3)
        110          8          1  5.08536271E-02                      2_GWF-(3,9,1)      -16.100610                      2_GWF-(2,1,2)
        111          8          2  2.04356192E-02                      2_GWF-(3,1,1)      -13.274506                      2_GWF-(2,1,2)
        112          8          3 -1.43947103E-02                     2_GWF-(2,10,3)       11.201704                      2_GWF-(3,2,2)
        113          8          4 -1.17853900E-02                     2_GWF-(2,10,3)       6.3457439                      2_GWF-(3,1,2)
        114          8          5 -3.92192374E-03                     2_GWF-(2,10,4)      -3.4285052                     2_GWF-(2,10,2)
        115          8          6 -1.74423991E-03                      2_GWF-(3,1,2)      -1.9237637                     2_GWF-(2,10,2)
        116          8          7 -3.11540909E-04                     2_GWF-(2,10,4)      -1.2494697                     2_GWF-(2,10,2)
        117          8          8 -2.11811263E-04                      2_GWF-(3,2,1)      0.74753567                     2_GWF-(3,10,2)
        118          8          9 -9.67996790E-05                     2_GWF-(2,10,4)      0.31715128                     2_GWF-(3,10,2)
        119          8         10  5.56580712E-05                      2_GWF-(2,3,1)      0.14103297                     2_GWF-(3,10,2)
        120          8         11  1.88506671E-05                      2_GWF-(2,9,1) -5.06229002E-02                     2_GWF-(2,10,2)
        121          8         12  1.29039509E-05                      2_GWF-(2,2,1) -2.47334088E-02                     2_GWF-(2,10,2)
        122          8         13  3.99093460E-06                      2_GWF-(3,9,4) -1.17041935E-02                     2_GWF-(2,10,2)
        123          8         14  2.92339494E-06                     2_GWF-(2,10,4)  4.11494634E-03                     2_GWF-(3,10,2)
 --------------------------------------------------------------------------------------------------------------------------------------


1
  HEAD IN LAYER   1 AT END OF TIME STEP   1 IN STRESS PERIOD    1
  ---------------------------------------------------------------------------

                1               2               3               4               5
 ................................................................................
   1    -1.000000E+30   -1.000000E+30   -1.000000E+30   -1.000000E+30   -1.000000E+30
   2    -1.000000E+30   -1.000000E+30   -1.000000E+30   -1.000000E+30   -1.000000E+30
   3    -1.000000E+30   -1.000000E+30   -1.000000E+30   -1.000000E+30   -1.000000E+30
   4    -1.000000E+30   -1.000000E+30   -1.000000E+30   -1.000000E+30   -1.000000E+30
   5    -1.000000E+30   -1.000000E+30   -1.000000E+30   -1.000000E+30   -1.000000E+30
   6    -1.000000E+30   -1.000000E+30   -1.000000E+30   -1.000000E+30   -1.000000E+30
   7    -1.000000E+30   -1.000000E+30   -1.000000E+30   -1.000000E+30   -1.000000E+30
   8    -1.000000E+30   -1.000000E+30   -1.000000E+30   -1.000000E+30   -1.000000E+30
   9    -1.000000E+30   -1.000000E+30   -1.000000E+30   -1.000000E+30   -1.000000E+30
  10    -1.000000E+30   -1.000000E+30   -1.000000E+30   -1.000000E+30   -1.000000E+30
1
  HEAD IN LAYER   2 AT END OF TIME STEP   1 IN STRESS PERIOD    1
  ---------------------------------------------------------------------------

                1               2               3               4               5
 ................................................................................
   1      36.9700         27.8939         17.5242         4.55857       -1.000000E+30
   2      36.9700         27.8939         17.5242         4.55857       -1.000000E+30
   3      36.9700         27.8939         17.5242         4.55857       -1.000000E+30
   4      36.9700         27.8939         17.5242         4.55857       -1.000000E+30
   5      36.9700         27.8939         17.5242         4.55857       -1.000000E+30
   6      36.9700         27.8939         17.5242         4.55857       -1.000000E+30
   7      36.9700         27.8939         17.5242         4.55857       -1.000000E+30
   8      36.9700         27.8939         17.5242         4.55857       -1.000000E+30
   9      36.9700         27.8939         17.5242         4.55857       -1.000000E+30
  10      36.9700         27.8939         17.5242         4.55857       -1.000000E+30
1
  HEAD IN LAYER   3 AT END OF TIME STEP   1 IN STRESS PERIOD    1
  ---------------------------------------------------------------------------

                1               2               3               4               5
 ................................................................................
   1      36.9611         27.8809         17.4985         4.53970        -40.0000    
   2      36.9611         27.8809         17.4985         4.53970        -40.0000    
   3      36.9611         27.8809         17.4985         4.53970        -40.0000    
   4      36.9611         27.8809         17.4985         4.53970        -40.0000    
   5      36.9611         27.8809         17.4985         4.53970        -40.0000    
   6      36.9611         27.8809         17.4985         4.53970        -40.0000    
   7      36.9611         27.8809         17.4985         4.53970        -40.0000    
   8      36.9611         27.8809         17.4985         4.53970        -40.0000    
   9      36.9611         27.8809         17.4985         4.53970        -40.0000    
  10      36.9611         27.8809         17.4985         4.53969        -40.0000    

 HEAD WILL BE SAVED ON UNIT 1018 AT END OF TIME STEP    1, STRESS PERIOD    1


  VOLUME BUDGET FOR ENTIRE MODEL AT END OF TIME STEP    1, STRESS PERIOD   1
  ---------------------------------------------------------------------------------------------------

     CUMULATIVE VOLUME      L**3       RATES FOR THIS TIME STEP      L**3/T          PACKAGE NAME    
     ------------------                 ------------------------                     ----------------

           IN:                                      IN:
           ---                                      ---
                 CHD =           0.0000                   CHD =           0.0000     CHD2                             
        FLOW-JA-FACE =       74232.8262          FLOW-JA-FACE =       74232.8262     GWF-GWF_1                        

            TOTAL IN =       74232.8262              TOTAL IN =       74232.8262

          OUT:                                     OUT:
          ----                                     ----
                 CHD =       74232.8274                   CHD =       74232.8274     CHD2                             
        FLOW-JA-FACE =           0.0000          FLOW-JA-FACE =           0.0000     GWF-GWF_1                        

           TOTAL OUT =       74232.8274             TOTAL OUT =       74232.8274

            IN - OUT =      -1.2021E-03              IN - OUT =      -1.2021E-03

 PERCENT DISCREPANCY =          -0.00     PERCENT DISCREPANCY =          -0.00




         TIME SUMMARY AT END OF TIME STEP    1 IN STRESS PERIOD    1
                    SECONDS     MINUTES      HOURS       DAYS        YEARS
                    -----------------------------------------------------------
   TIME STEP LENGTH  86400.      1440.0      24.000      1.0000     2.73785E-03
 STRESS PERIOD TIME  86400.      1440.0      24.000      1.0000     2.73785E-03
         TOTAL TIME  86400.      1440.0      24.000      1.0000     2.73785E-03


end timestep


start timestep kper="2" kstp="1" mode="normal"


 END OF FILE DETECTED IN OUTPUT CONTROL.
 CURRENT OUTPUT CONTROL SETTINGS WILL BE 
 REPEATED UNTIL THE END OF THE SIMULATION.

 OUTPUT CONTROL FOR STRESS PERIOD 2 IS REPEATED USING SETTINGS FROM A PREVIOUS STRESS PERIOD.

 CELL CONVERSIONS FOR ITER.=2  STEP=1  PERIOD=2   (NODE or LRC)
     DRY             (2,1,1) DRY             (2,1,2) DRY             (2,1,3) DRY             (2,1,4) DRY             (2,2,1)
     DRY             (2,2,2) DRY             (2,2,3) DRY             (2,2,4) DRY             (2,3,1) DRY             (2,3,2)
     DRY             (2,3,3) DRY             (2,3,4) DRY             (2,4,1) DRY             (2,4,2) DRY             (2,4,3)
     DRY             (2,4,4) DRY             (2,5,1) DRY             (2,5,2) DRY             (2,5,3) DRY             (2,5,4)
     DRY             (2,6,1) DRY             (2,6,2) DRY             (2,6,3) DRY             (2,6,4) DRY             (2,7,1)
     DRY             (2,7,2) DRY             (2,7,3) DRY             (2,7,4) DRY             (2,8,1) DRY             (2,8,2)
     DRY             (2,8,3) DRY             (2,8,4) DRY             (2,9,1) DRY             (2,9,2) DRY             (2,9,3)
     DRY             (2,9,4) DRY            (2,10,1) DRY            (2,10,2) DRY            (2,10,3) DRY            (2,10,4)

 SLN_1 INNER ITERATION SUMMARY
 --------------------------------------------------------------------------------------------------------------------------------------
      TOTAL      OUTER      INNER                                                            MAXIMUM                                   
  ITERATION  ITERATION  ITERATION  MAXIMUM CHANGE      MAXIMUM CHANGE MODEL-(CELLID)        RESIDUAL    MAXIMUM RESIDUAL MODEL-(CELLID)
 --------------------------------------------------------------------------------------------------------------------------------------
          1          1          1      -47.051102                     2_GWF-(3,10,1)      -6048.1988                     2_GWF-(3,10,1)
          2          1          2      -19.556610                      2_GWF-(3,2,1)      -3138.8725                      2_GWF-(3,4,1)
          3          1          3      -13.251093                      2_GWF-(3,1,2)      -3015.9414                      2_GWF-(3,2,1)
          4          1          4      -7.4704182                      2_GWF-(2,1,3)      -2012.5996                      2_GWF-(3,1,1)
          5          1          5      -2.7505905                      2_GWF-(2,1,4)      -946.97827                      2_GWF-(3,1,2)
          6          1          6     -0.79135469                     2_GWF-(2,10,3)      -365.77292                      2_GWF-(3,1,3)
          7          1          7     -0.36154547                      2_GWF-(2,9,3)      -158.59336                      2_GWF-(3,1,3)
          8          1          8      0.11727979                      2_GWF-(3,7,1)       81.708202                     2_GWF-(2,10,2)
          9          1          9  8.91350944E-02                      2_GWF-(3,1,3)       38.958498                     2_GWF-(2,10,3)
         10          1         10 -3.05058230E-02                     2_GWF-(2,10,4)       20.340823                     2_GWF-(2,10,3)
         11          1         11 -1.63086120E-02                     2_GWF-(2,10,4)       8.8981020                     2_GWF-(2,10,3)
         12          1         12 -6.90502457E-03                     2_GWF-(2,10,4)       3.5107813                     2_GWF-(2,10,3)
         13          1         13 -2.61205977E-03                     2_GWF-(2,10,4)       1.7914467                     2_GWF-(2,10,4)
         14          1         14 -1.26427679E-03                     2_GWF-(2,10,4)      0.85663615                     2_GWF-(2,10,4)
         15          1         15 -7.55923282E-04                     2_GWF-(2,10,4)      0.36534605                     2_GWF-(2,10,4)
         16          1         16 -2.26445271E-04                     2_GWF-(2,10,4)      0.14290507                     2_GWF-(2,10,4)
         17          1         17 -7.98500415E-05                     2_GWF-(2,10,4)  5.44090249E-02                     2_GWF-(2,10,4)
         18          1         18 -2.32953351E-05                     2_GWF-(2,10,4)  1.96679469E-02                     2_GWF-(2,10,4)
         19          1         19 -8.10860477E-06                     2_GWF-(2,10,4)  5.96824582E-03                     2_GWF-(2,10,4)
         20          2          1      -6.3857582                      2_GWF-(3,2,2)       474.29510                      2_GWF-(3,2,4)
         21          2          2      -1.7062322                     2_GWF-(3,10,1)      -265.70571                      2_GWF-(3,1,1)
         22          2          3      0.71158628                      2_GWF-(3,1,1)      -139.56566                      2_GWF-(3,1,3)
         23          2          4      0.31075987                      2_GWF-(3,1,3)       48.343910                      2_GWF-(3,2,3)
         24          2          5  6.75871496E-02                      2_GWF-(3,1,4)      -19.973751                      2_GWF-(3,2,1)
         25          2          6  3.16348932E-02                      2_GWF-(3,2,1)      -7.6368826                      2_GWF-(3,2,2)
         26          2          7  1.26846960E-02                      2_GWF-(3,6,1)       2.2721907                      2_GWF-(3,3,2)
         27          2          8  3.27631880E-03                      2_GWF-(3,4,1)     -0.69113868                      2_GWF-(3,3,1)
         28          2          9 -1.01867030E-03                     2_GWF-(3,10,3)     -0.27823130                      2_GWF-(3,3,1)
         29          2         10  3.40605259E-04                      2_GWF-(3,6,2) -6.04128413E-02                      2_GWF-(3,5,1)
         30          2         11 -1.06948849E-04                     2_GWF-(3,10,3) -1.78062591E-02                      2_GWF-(3,8,1)
         31          2         12  4.23697165E-05                      2_GWF-(3,9,1) -6.69110741E-03                      2_GWF-(3,7,1)
         32          2         13 -1.50260340E-05                     2_GWF-(3,10,2)  1.81380616E-03                      2_GWF-(3,9,3)
         33          3          1       1.3388761                      2_GWF-(3,8,1)       181.72547                     2_GWF-(3,10,4)
         34          3          2      0.52856185                      2_GWF-(3,1,1)      -123.07276                      2_GWF-(3,1,3)
         35          3          3      0.24383048                      2_GWF-(3,1,3)       48.533291                     2_GWF-(3,10,4)
         36          3          4     -0.13711597                     2_GWF-(3,10,4)      -19.916672                      2_GWF-(3,2,1)
         37          3          5 -4.06622239E-02                     2_GWF-(3,10,2)      -7.0342174                      2_GWF-(3,2,2)
         38          3          6 -1.08996618E-02                      2_GWF-(3,3,1)       3.9411396                      2_GWF-(3,9,4)
         39          3          7 -6.16314843E-03                      2_GWF-(3,9,4)      0.97008748                      2_GWF-(3,9,4)
         40          3          8 -1.72864405E-03                      2_GWF-(3,9,4)     -0.30566369                      2_GWF-(3,3,1)
         41          3          9  2.47244850E-04                      2_GWF-(3,3,1)  7.34388680E-02                      2_GWF-(3,2,1)
         42          3         10 -1.40765248E-04                      2_GWF-(3,2,2)  3.05583815E-02                     2_GWF-(3,10,3)
         43          3         11  3.59871873E-05                      2_GWF-(3,3,3)  8.85331814E-03                     2_GWF-(3,10,3)
         44          3         12 -1.57328411E-05                     2_GWF-(3,10,3)  2.12990333E-03                      2_GWF-(3,8,2)
         45          4          1      0.61011518                      2_GWF-(3,3,3)       61.946816                      2_GWF-(3,4,3)
         46          4          2     -0.29607264                      2_GWF-(3,2,1)       35.091735                      2_GWF-(3,1,2)
         47          4          3     -0.10499406                      2_GWF-(3,1,2)       14.303715                      2_GWF-(3,1,3)
         48          4          4 -2.62488271E-02                      2_GWF-(3,1,3)      -3.3437030                      2_GWF-(3,9,4)
         49          4          5 -6.24457986E-03                      2_GWF-(3,1,3)      -1.3251443                      2_GWF-(3,1,1)
         50          4          6 -2.70152287E-03                      2_GWF-(3,6,1)      0.90313624                      2_GWF-(3,2,1)
         51          4          7 -1.19868561E-03                      2_GWF-(3,1,4)      0.17626201                      2_GWF-(3,2,2)
         52          4          8 -4.02600836E-04                      2_GWF-(3,2,4) -5.11416996E-02                     2_GWF-(3,10,3)
         53          4          9 -9.39056526E-05                      2_GWF-(3,6,1)  2.00989783E-02                      2_GWF-(3,3,1)
         54          4         10 -4.37400798E-05                      2_GWF-(3,9,1)  3.33846253E-03                      2_GWF-(3,7,2)
         55          4         11  6.23893652E-06                      2_GWF-(3,2,1)  1.75157358E-03                      2_GWF-(3,3,1)
         56          5          1 -7.80732151E-02                      2_GWF-(3,7,1)       10.555724                      2_GWF-(3,1,2)
         57          5          2 -3.19610789E-02                      2_GWF-(3,1,2)       6.8192228                      2_GWF-(3,1,3)
         58          5          3 -1.38581903E-02                      2_GWF-(3,1,3)      -2.7202011                     2_GWF-(3,10,4)
         59          5          4  6.45852262E-03                     2_GWF-(3,10,4)       1.2520491                      2_GWF-(3,2,1)
         60          5          5  2.25458201E-03                     2_GWF-(3,10,4)     -0.43894132                      2_GWF-(3,9,4)
         61          5          6  5.82211923E-04                      2_GWF-(3,3,1)     -0.25901817                      2_GWF-(3,9,4)
         62          5          7  4.00310460E-04                      2_GWF-(3,9,4) -6.16005348E-02                      2_GWF-(3,9,4)
         63          5          8  1.18852626E-04                      2_GWF-(3,9,4)  1.52555894E-02                      2_GWF-(3,3,1)
         64          5          9  1.30787602E-05                      2_GWF-(3,9,1) -4.54901098E-03                      2_GWF-(3,2,1)
 --------------------------------------------------------------------------------------------------------------------------------------


1
  HEAD IN LAYER   1 AT END OF TIME STEP   1 IN STRESS PERIOD    2
  ---------------------------------------------------------------------------

                1               2               3               4               5
 ................................................................................
   1    -1.000000E+30   -1.000000E+30   -1.000000E+30   -1.000000E+30   -1.000000E+30
   2    -1.000000E+30   -1.000000E+30   -1.000000E+30   -1.000000E+30   -1.000000E+30
   3    -1.000000E+30   -1.000000E+30   -1.000000E+30   -1.000000E+30   -1.000000E+30
   4    -1.000000E+30   -1.000000E+30   -1.000000E+30   -1.000000E+30   -1.000000E+30
   5    -1.000000E+30   -1.000000E+30   -1.000000E+30   -1.000000E+30   -1.000000E+30
   6    -1.000000E+30   -1.000000E+30   -1.000000E+30   -1.000000E+30   -1.000000E+30
   7    -1.000000E+30   -1.000000E+30   -1.000000E+30   -1.000000E+30   -1.000000E+30
   8    -1.000000E+30   -1.000000E+30   -1.000000E+30   -1.000000E+30   -1.000000E+30
   9    -1.000000E+30   -1.000000E+30   -1.000000E+30   -1.000000E+30   -1.000000E+30
  10    -1.000000E+30   -1.000000E+30   -1.000000E+30   -1.000000E+30   -1.000000E+30
1
  HEAD IN LAYER   2 AT END OF TIME STEP   1 IN STRESS PERIOD    2
  ---------------------------------------------------------------------------

                1               2               3               4               5
 ................................................................................
   1    -1.000000E+30   -1.000000E+30   -1.000000E+30   -1.000000E+30   -1.000000E+30
   2    -1.000000E+30   -1.000000E+30   -1.000000E+30   -1.000000E+30   -1.000000E+30
   3    -1.000000E+30   -1.000000E+30   -1.000000E+30   -1.000000E+30   -1.000000E+30
   4    -1.000000E+30   -1.000000E+30   -1.000000E+30   -1.000000E+30   -1.000000E+30
   5    -1.000000E+30   -1.000000E+30   -1.000000E+30   -1.000000E+30   -1.000000E+30
   6    -1.000000E+30   -1.000000E+30   -1.000000E+30   -1.000000E+30   -1.000000E+30
   7    -1.000000E+30   -1.000000E+30   -1.000000E+30   -1.000000E+30   -1.000000E+30
   8    -1.000000E+30   -1.000000E+30   -1.000000E+30   -1.000000E+30   -1.000000E+30
   9    -1.000000E+30   -1.000000E+30   -1.000000E+30   -1.000000E+30   -1.000000E+30
  10    -1.000000E+30   -1.000000E+30   -1.000000E+30   -1.000000E+30   -1.000000E+30
1
  HEAD IN LAYER   3 AT END OF TIME STEP   1 IN STRESS PERIOD    2
  ---------------------------------------------------------------------------

                1               2               3               4               5
 ................................................................................
   1     -8.35493        -13.3038        -19.0564        -26.2525        -40.0000    
   2     -8.35494        -13.3038        -19.0564        -26.2525        -40.0000    
   3     -8.35493        -13.3038        -19.0564        -26.2525        -40.0000    
   4     -8.35493        -13.3038        -19.0564        -26.2525        -40.0000    
   5     -8.35493        -13.3038        -19.0564        -26.2525        -40.0000    
   6     -8.35493        -13.3038        -19.0564        -26.2525        -40.0000    
   7     -8.35493        -13.3038        -19.0564        -26.2525        -40.0000    
   8     -8.35493        -13.3038        -19.0564        -26.2525        -40.0000    
   9     -8.35493        -13.3038        -19.0564        -26.2525        -40.0000    
  10     -8.35493        -13.3038        -19.0564        -26.2525        -40.0000    

 HEAD WILL BE SAVED ON UNIT 1018 AT END OF TIME STEP    1, STRESS PERIOD    2


  VOLUME BUDGET FOR ENTIRE MODEL AT END OF TIME STEP    1, STRESS PERIOD   2
  ---------------------------------------------------------------------------------------------------

     CUMULATIVE VOLUME      L**3       RATES FOR THIS TIME STEP      L**3/T          PACKAGE NAME    
     ------------------                 ------------------------                     ----------------

           IN:                                      IN:
           ---                                      ---
                 CHD =           0.0000                   CHD =           0.0000     CHD2                             
        FLOW-JA-FACE =       93579.1392          FLOW-JA-FACE =       19346.3130     GWF-GWF_1                        

            TOTAL IN =       93579.1392              TOTAL IN =       19346.3130

          OUT:                                     OUT:
          ----                                     ----
                 CHD =       93579.1348                   CHD =       19346.3074     CHD2                             
        FLOW-JA-FACE =           0.0000          FLOW-JA-FACE =           0.0000     GWF-GWF_1                        

           TOTAL OUT =       93579.1348             TOTAL OUT =       19346.3074

            IN - OUT =       4.4411E-03              IN - OUT =       5.6432E-03

 PERCENT DISCREPANCY =           0.00     PERCENT DISCREPANCY =           0.00




         TIME SUMMARY AT END OF TIME STEP    1 IN STRESS PERIOD    2
                    SECONDS     MINUTES      HOURS       DAYS        YEARS
                    -----------------------------------------------------------
   TIME STEP LENGTH  86400.      1440.0      24.000      1.0000     2.73785E-03
 STRESS PERIOD TIME  86400.      1440.0      24.000      1.0000     2.73785E-03
         TOTAL TIME 1.72800E+05  2880.0      48.000      2.0000     5.47570E-03


end timestep

