                             MODFLOW 6 PROFESSIONAL
                U.S. GEOLOGICAL SURVEY MODULAR HYDROLOGIC MODEL
                  VERSION 6.5.0.dev0 (preliminary) 07/13/2023
                               ***DEVELOP MODE***

        MODFLOW 6 compiled Oct 30 2023 08:23:02 with GCC version 11.3.0

This software is preliminary or provisional and is subject to 
revision. It is being provided to meet the need for timely best 
science. The software has not received final approval by the U.S. 
Geological Survey (USGS). No warranty, expressed or implied, is made 
by the USGS or the U.S. Government as to the functionality of the 
software and related material nor shall the fact of release 
constitute any such warranty. The software is provided on the 
condition that neither the USGS nor the U.S. Government shall be held 
liable for any damages resulting from the authorized or unauthorized 
use of the software.


As a work of the United States Government, this USGS product is 
in the public domain within the United States. You can copy, 
modify, distribute, and perform the work, even for commercial 
purposes, all without asking permission. Additionally, USGS 
waives copyright and related rights in the work worldwide 
through CC0 1.0 Universal Public Domain Dedication 
(https://creativecommons.org/publicdomain/zero/1.0/).

The following GNU Lesser General Public License (LGPL) libraries
are used in this USGS product:

    SPARSKIT version 2.0
      ilut, luson, and qsplit 
      (https://www-users.cse.umn.edu/~saad/software/SPARSKIT/)

    RCM - Reverse Cuthill McKee Ordering
      (https://people.math.sc.edu/Burkardt/f_src/rcm/rcm.html)

    BLAS - Basic Linear Algebra Subprograms Level 1
      (https://people.math.sc.edu/Burkardt/f_src/blas1_d/blas1_d.html)

    SPARSEKIT - Sparse Matrix Utility Package
      amux, dperm, dvperm, rperm, and cperm
      (https://people.sc.fsu.edu/~jburkardt/f77_src/sparsekit/sparsekit.html)

The following BSD-3 License libraries are used in this USGS product:

    Modern Fortran DAG Library
      Copyright (c) 2018, Jacob Williams
      All rights reserved.
      (https://github.com/jacobwilliams/daglib)

The following 2-clause BSD License library is used in this
USGS product:

    PETSc, the Portable, Extensible Toolkit for Scientific
    Computation Library
      Copyright (c) 1991-2021, UChicago Argonne, LLC
      and the PETSc Development Team All rights reserved.
      (https://petsc.org/release/)

MODFLOW 6 compiler options: -cpp -I src/libmf6core.a.p -I src -I ../src -I
src/libmf6_external.a.p -I
/home/mreno/.clone/external/petsc/arch-linux-c-debug/include -I
/home/mreno/.clone/external/petsc/include -I
/home/mreno/.clone/external/petsc/arch-linux-c-debug/lib -I
/home/mreno/miniconda3/envs/modflow6/include -I -fdiagnostics-color=always
-imultiarch x86_64-linux-gnu -D _FILE_OFFSET_BITS=64 -D __linux__ -D
__WITH_PETSC__ -D __WITH_MPI__ -D __WITH_NETCDF__ -mtune=generic
-march=x86-64 -g -O2 -Wall -Wpedantic -Wcharacter-truncation
-Wno-unused-dummy-argument -Wno-intrinsic-shadow -Wno-maybe-uninitialized
-Wno-uninitialized -std=f2008 -fall-intrinsics -fbacktrace -fcheck=all
-ffpe-trap=overflow,zero,invalid -ffpe-summary=overflow
-ffpe-trap=overflow,zero,invalid -fPIC -J src/libmf6core.a.p
-fpre-include=/usr/include/finclude/math-vector-fortran.h

System command used to initiate simulation:
/home/mreno/.clone/usgs/w/netcdf/2/modflow6/bin/mf6

MODFLOW was compiled using uniform precision.

Real Variables
  KIND: 8
  TINY (smallest non-zero value):    2.225074-308
  HUGE (largest value):    1.797693+308
  PRECISION: 15
  SIZE IN BITS: 64

Integer Variables
  KIND: 4
  HUGE (largest value): 2147483647
  SIZE IN BITS: 32

Long Integer Variables
  KIND: 8
  HUGE (largest value): 9223372036854775807
  SIZE IN BITS: 64

Logical Variables
  KIND: 4
  SIZE IN BITS: 32


 OPENED mfsim.nam
 FILE TYPE:NAM6      UNIT 1001   STATUS:OLD                 
 FORMAT:FORMATTED              ACCESS:SEQUENTIAL          
 ACTION:READ                

 # File generated by Flopy version 3.5.0.dev0 on 10/30/2023 at 09:20:40.

 OPENED gwf0.nam
 FILE TYPE:GWF6      UNIT 1002   STATUS:OLD                 
 FORMAT:FORMATTED              ACCESS:SEQUENTIAL          
 ACTION:READ                

 # File generated by Flopy version 3.5.0.dev0 on 10/30/2023 at 09:20:40.
Model NetCDF4 Input "gwf0.nc" opened NF90_NOWRITE, ncid=65536
IDM nc modeltype=GWF6
IDM load netcdf var model=GWF6, ptype=DIS6
IDM nc4_context pkg cname=GWF0, scname=DIS
IDM load nc model ctype=GWF
IDM load netcdf var model=GWF6, ptype=DIS6, sctype=DIS
Input parameter "NLAY" discovered for package "GWF0/DIS".
IDM load netcdf var model=GWF6, ptype=DIS6
IDM nc4_context pkg cname=GWF0, scname=DIS
IDM load nc model ctype=GWF
IDM load netcdf var model=GWF6, ptype=DIS6, sctype=DIS
Input parameter "NROW" discovered for package "GWF0/DIS".
IDM load netcdf var model=GWF6, ptype=DIS6
IDM nc4_context pkg cname=GWF0, scname=DIS
IDM load nc model ctype=GWF
IDM load netcdf var model=GWF6, ptype=DIS6, sctype=DIS
Input parameter "NCOL" discovered for package "GWF0/DIS".
IDM load netcdf var model=GWF6, ptype=DIS6
IDM nc4_context pkg cname=GWF0, scname=DIS
IDM load nc model ctype=GWF
IDM load netcdf var model=GWF6, ptype=DIS6, sctype=DIS
Input parameter "DELR" discovered for package "GWF0/DIS".
IDM load netcdf var model=GWF6, ptype=DIS6
IDM nc4_context pkg cname=GWF0, scname=DIS
IDM load nc model ctype=GWF
IDM load netcdf var model=GWF6, ptype=DIS6, sctype=DIS
Input parameter "DELC" discovered for package "GWF0/DIS".
IDM load netcdf var model=GWF6, ptype=DIS6
IDM nc4_context pkg cname=GWF0, scname=DIS
IDM load nc model ctype=GWF
IDM load netcdf var model=GWF6, ptype=DIS6, sctype=DIS
Input parameter "TOP" discovered for package "GWF0/DIS".
IDM load netcdf var model=GWF6, ptype=DIS6
IDM nc4_context pkg cname=GWF0, scname=DIS
IDM load nc model ctype=GWF
IDM load netcdf var model=GWF6, ptype=DIS6, sctype=DIS
Input parameter "BOTM" discovered for package "GWF0/DIS".
IDM load netcdf var model=GWF6, ptype=NPF6
IDM nc4_context pkg cname=GWF0, scname=DIS
IDM nc4_context pkg cname=GWF0, scname=NPF
IDM load nc model ctype=GWF
IDM load netcdf var model=GWF6, ptype=NPF6, sctype=NPF
Input parameter "SAVE_FLOWS" discovered for package "GWF0/NPF".
IDM load netcdf var model=GWF6, ptype=NPF6
IDM nc4_context pkg cname=GWF0, scname=DIS
IDM nc4_context pkg cname=GWF0, scname=NPF
IDM load nc model ctype=GWF
IDM load netcdf var model=GWF6, ptype=NPF6, sctype=NPF
Input parameter "REWET" discovered for package "GWF0/NPF".
IDM load netcdf var model=GWF6, ptype=NPF6
IDM nc4_context pkg cname=GWF0, scname=DIS
IDM nc4_context pkg cname=GWF0, scname=NPF
IDM load nc model ctype=GWF
IDM load netcdf var model=GWF6, ptype=NPF6, sctype=NPF
Input parameter "WETFCT" discovered for package "GWF0/NPF".
IDM load netcdf var model=GWF6, ptype=NPF6
IDM nc4_context pkg cname=GWF0, scname=DIS
IDM nc4_context pkg cname=GWF0, scname=NPF
IDM load nc model ctype=GWF
IDM load netcdf var model=GWF6, ptype=NPF6, sctype=NPF
Input parameter "IWETIT" discovered for package "GWF0/NPF".
IDM load netcdf var model=GWF6, ptype=NPF6
IDM nc4_context pkg cname=GWF0, scname=DIS
IDM nc4_context pkg cname=GWF0, scname=NPF
IDM load nc model ctype=GWF
IDM load netcdf var model=GWF6, ptype=NPF6, sctype=NPF
Input parameter "IHDWET" discovered for package "GWF0/NPF".
IDM load netcdf var model=GWF6, ptype=NPF6
IDM nc4_context pkg cname=GWF0, scname=DIS
IDM nc4_context pkg cname=GWF0, scname=NPF
IDM load nc model ctype=GWF
IDM load netcdf var model=GWF6, ptype=NPF6, sctype=NPF
Input parameter "ICELLTYPE" discovered for package "GWF0/NPF".
IDM load netcdf var model=GWF6, ptype=NPF6
IDM nc4_context pkg cname=GWF0, scname=DIS
IDM nc4_context pkg cname=GWF0, scname=NPF
IDM load nc model ctype=GWF
IDM load netcdf var model=GWF6, ptype=NPF6, sctype=NPF
Input parameter "K" discovered for package "GWF0/NPF".
IDM load netcdf var model=GWF6, ptype=NPF6
IDM nc4_context pkg cname=GWF0, scname=DIS
IDM nc4_context pkg cname=GWF0, scname=NPF
IDM load nc model ctype=GWF
IDM load netcdf var model=GWF6, ptype=NPF6, sctype=NPF
Input parameter "WETDRY" discovered for package "GWF0/NPF".
IDM load netcdf var model=GWF6, ptype=CHD6
IDM nc4_context pkg cname=GWF0, scname=DIS
IDM nc4_context pkg cname=GWF0, scname=NPF
IDM nc4_context pkg cname=GWF0, scname=CHD1
IDM load nc model ctype=GWF
IDM load netcdf var model=GWF6, ptype=CHD6, sctype=CHD
Input parameter "PRINT_INPUT" discovered for package "GWF0/CHD1".
IDM load netcdf var model=GWF6, ptype=CHD6
IDM nc4_context pkg cname=GWF0, scname=DIS
IDM nc4_context pkg cname=GWF0, scname=NPF
IDM nc4_context pkg cname=GWF0, scname=CHD1
IDM load nc model ctype=GWF
IDM load netcdf var model=GWF6, ptype=CHD6, sctype=CHD
Input parameter "SAVE_FLOWS" discovered for package "GWF0/CHD1".
IDM load netcdf var model=GWF6, ptype=CHD6
IDM nc4_context pkg cname=GWF0, scname=DIS
IDM nc4_context pkg cname=GWF0, scname=NPF
IDM nc4_context pkg cname=GWF0, scname=CHD1
IDM load nc model ctype=GWF
IDM load netcdf var model=GWF6, ptype=CHD6, sctype=CHD
Input parameter "MAXBOUND" discovered for package "GWF0/CHD1".
IDM load netcdf var model=GWF6, ptype=CHD6
IDM nc4_context pkg cname=GWF0, scname=DIS
IDM nc4_context pkg cname=GWF0, scname=NPF
IDM nc4_context pkg cname=GWF0, scname=CHD1
IDM load nc model ctype=GWF
IDM load netcdf var model=GWF6, ptype=CHD6
IDM nc4_context pkg cname=GWF0, scname=DIS
IDM nc4_context pkg cname=GWF0, scname=NPF
IDM nc4_context pkg cname=GWF0, scname=CHD1
IDM load nc model ctype=GWF
IDM load netcdf var model=GWF6, ptype=CHD6, sctype=CHD
Input parameter "CELLID" discovered for package "GWF0/CHD1".
IDM load netcdf var model=GWF6, ptype=CHD6
IDM nc4_context pkg cname=GWF0, scname=DIS
IDM nc4_context pkg cname=GWF0, scname=NPF
IDM nc4_context pkg cname=GWF0, scname=CHD1
IDM load nc model ctype=GWF
IDM load netcdf var model=GWF6, ptype=CHD6, sctype=CHD
Input parameter "HEAD" discovered for package "GWF0/CHD1".
IDM input_load pkg=DIS
IDM NF90_MAX_DIMS=1024
IDM NF90_MAX_VAR_DIMS=1024
varname=NLAY, type=INTEGER
varname=NROW, type=INTEGER
varname=NCOL, type=INTEGER
varname=DELR, type=DOUBLE1D
varname=DELC, type=DOUBLE1D
varname=TOP, type=DOUBLE2D
varname=BOTM, type=DOUBLE3D
    ALL SIMULATION MEMORY INFORMATION WILL BE WRITTEN.

 DETAILED INFORMATION ON VARIABLES STORED IN THE MEMORY MANAGER
 -----------------------------------------------------------------------------------------------------------------------------------------------------------------------------
 ORIGIN                                             VARIABLE NAME    DATA TYPE             NUMBER OF ITEMS ASSOCIATED VARIABLE                                                
 -----------------------------------------------------------------------------------------------------------------------------------------------------------------------------
 __INPUT__/SIM/NAM                                  TDIS6            STRING LEN=300                      1 --                                                                 
 __INPUT__/SIM/NAM                                  MTYPE            STRING LEN=300                      2 --                                                                 
 __INPUT__/SIM/NAM                                  MFNAME           STRING LEN=300                      2 --                                                                 
 __INPUT__/SIM/NAM                                  MNAME            STRING LEN=300                      2 --                                                                 
 __INPUT__/SIM/NAM                                  EXGTYPE          STRING LEN=300                      1 --                                                                 
 __INPUT__/SIM/NAM                                  EXGFILE          STRING LEN=300                      1 --                                                                 
 __INPUT__/SIM/NAM                                  EXGMNAMEA        STRING LEN=300                      1 --                                                                 
 __INPUT__/SIM/NAM                                  EXGMNAMEB        STRING LEN=300                      1 --                                                                 
 __INPUT__/SIM/NAM                                  SOLUTIONGROUPNUM INTEGER                             1 --                                                                 
 __INPUT__/SIM/NAM                                  SLNTYPE          STRING LEN=300                      1 --                                                                 
 __INPUT__/SIM/NAM                                  SLNFNAME         STRING LEN=300                      1 --                                                                 
 __INPUT__/SIM/NAM                                  SLNMNAMES        STRING LEN=300                      1 --                                                                 
 __INPUT__/SIM/NAM                                  CONTINUE         INTEGER                             1 --                                                                 
 __INPUT__/SIM/NAM                                  NOCHECK          INTEGER                             1 --                                                                 
 __INPUT__/SIM/NAM                                  PRMEM            STRING LEN=300                      1 --                                                                 
 __INPUT__/SIM/NAM                                  MAXERRORS        INTEGER                             1 --                                                                 
 __INPUT__/SIM/NAM                                  PRINT_INPUT      INTEGER                             1 --                                                                 
 __INPUT__/SIM/NAM                                  MXITER           INTEGER                             1 --                                                                 
 __INPUT__/SIM                                      NUMMODELS        INTEGER                             1 --                                                                 
 __INPUT__/SIM                                      NUMEXCHANGES     INTEGER                             1 --                                                                 
 __INPUT__/GWF0/NAM                                 FTYPE            STRING LEN=300                      5 --                                                                 
 __INPUT__/GWF0/NAM                                 FNAME            STRING LEN=300                      5 --                                                                 
 __INPUT__/GWF0/NAM                                 PNAME            STRING LEN=300                      5 --                                                                 
 __INPUT__/GWF0                                     PKGTYPES         STRING LEN=7                        0 --                                                                 
 __INPUT__/GWF0                                     PKGNAMES         STRING LEN=16                       0 --                                                                 
 __INPUT__/GWF0                                     MEMPATHS         STRING LEN=50                       0 --                                                                 
 __INPUT__/GWF0                                     INUNITS          INTEGER                             0 --                                                                 
 __INPUT__/GWF0/DIS                                 INPUT_FNAME      STRING LEN=300                      1 --                                                                 
 __INPUT__/GWF0/NPF                                 INPUT_FNAME      STRING LEN=300                      1 --                                                                 
 __INPUT__/GWF0/CHD1                                INPUT_FNAME      STRING LEN=300                      1 --                                                                 
 __INPUT__/GWF0/DIS                                 NLAY             INTEGER                             1 --                                                                 
 __INPUT__/GWF0/DIS                                 NROW             INTEGER                             1 --                                                                 
 __INPUT__/GWF0/DIS                                 NCOL             INTEGER                             1 --                                                                 
 __INPUT__/GWF0                                     MODEL_SHAPE      INTEGER                             3 --                                                                 
 __INPUT__/GWF0                                     NCELLDIM         INTEGER                             1 --                                                                 
 __INPUT__/GWF0/DIS                                 DELR             DOUBLE                             10 --                                                                 
 __INPUT__/GWF0/DIS                                 DELC             DOUBLE                             10 --                                                                 
 __INPUT__/GWF0/DIS                                 TOP              DOUBLE                            100 --                                                                 
 __INPUT__/GWF0/DIS                                 BOTM             DOUBLE                            300 --                                                                 
 -----------------------------------------------------------------------------------------------------------------------------------------------------------------------------



 MEMORY MANAGER TOTAL STORAGE BY DATA TYPE, IN KILOBYTES
 -------------------------------
                    ALLOCATED   
 DATA TYPE           MEMORY     
 -------------------------------
 Character        1.5280000     
 Logical          0.0000000     
 Integer          6.00000000E-02
 Real             3.3600000     
 -------------------------------
 Total            4.9480000     
 Virtual          0.0000000     
 -------------------------------


IDM input_load pkg=NPF
IDM NF90_MAX_DIMS=1024
IDM NF90_MAX_VAR_DIMS=1024
varname=IPAKCB, type=KEYWORD
varname=IREWET, type=KEYWORD
varname=WETFCT, type=DOUBLE
varname=IWETIT, type=INTEGER
varname=IHDWET, type=INTEGER
varname=ICELLTYPE, type=INTEGER1D
varname=K, type=DOUBLE1D
varname=WETDRY, type=DOUBLE1D
    ALL SIMULATION MEMORY INFORMATION WILL BE WRITTEN.

 DETAILED INFORMATION ON VARIABLES STORED IN THE MEMORY MANAGER
 -----------------------------------------------------------------------------------------------------------------------------------------------------------------------------
 ORIGIN                                             VARIABLE NAME    DATA TYPE             NUMBER OF ITEMS ASSOCIATED VARIABLE                                                
 -----------------------------------------------------------------------------------------------------------------------------------------------------------------------------
 __INPUT__/SIM/NAM                                  TDIS6            STRING LEN=300                      1 --                                                                 
 __INPUT__/SIM/NAM                                  MTYPE            STRING LEN=300                      2 --                                                                 
 __INPUT__/SIM/NAM                                  MFNAME           STRING LEN=300                      2 --                                                                 
 __INPUT__/SIM/NAM                                  MNAME            STRING LEN=300                      2 --                                                                 
 __INPUT__/SIM/NAM                                  EXGTYPE          STRING LEN=300                      1 --                                                                 
 __INPUT__/SIM/NAM                                  EXGFILE          STRING LEN=300                      1 --                                                                 
 __INPUT__/SIM/NAM                                  EXGMNAMEA        STRING LEN=300                      1 --                                                                 
 __INPUT__/SIM/NAM                                  EXGMNAMEB        STRING LEN=300                      1 --                                                                 
 __INPUT__/SIM/NAM                                  SOLUTIONGROUPNUM INTEGER                             1 --                                                                 
 __INPUT__/SIM/NAM                                  SLNTYPE          STRING LEN=300                      1 --                                                                 
 __INPUT__/SIM/NAM                                  SLNFNAME         STRING LEN=300                      1 --                                                                 
 __INPUT__/SIM/NAM                                  SLNMNAMES        STRING LEN=300                      1 --                                                                 
 __INPUT__/SIM/NAM                                  CONTINUE         INTEGER                             1 --                                                                 
 __INPUT__/SIM/NAM                                  NOCHECK          INTEGER                             1 --                                                                 
 __INPUT__/SIM/NAM                                  PRMEM            STRING LEN=300                      1 --                                                                 
 __INPUT__/SIM/NAM                                  MAXERRORS        INTEGER                             1 --                                                                 
 __INPUT__/SIM/NAM                                  PRINT_INPUT      INTEGER                             1 --                                                                 
 __INPUT__/SIM/NAM                                  MXITER           INTEGER                             1 --                                                                 
 __INPUT__/SIM                                      NUMMODELS        INTEGER                             1 --                                                                 
 __INPUT__/SIM                                      NUMEXCHANGES     INTEGER                             1 --                                                                 
 __INPUT__/GWF0/NAM                                 FTYPE            STRING LEN=300                      5 --                                                                 
 __INPUT__/GWF0/NAM                                 FNAME            STRING LEN=300                      5 --                                                                 
 __INPUT__/GWF0/NAM                                 PNAME            STRING LEN=300                      5 --                                                                 
 __INPUT__/GWF0                                     PKGTYPES         STRING LEN=7                        0 --                                                                 
 __INPUT__/GWF0                                     PKGNAMES         STRING LEN=16                       0 --                                                                 
 __INPUT__/GWF0                                     MEMPATHS         STRING LEN=50                       0 --                                                                 
 __INPUT__/GWF0                                     INUNITS          INTEGER                             0 --                                                                 
 __INPUT__/GWF0/DIS                                 INPUT_FNAME      STRING LEN=300                      1 --                                                                 
 __INPUT__/GWF0/NPF                                 INPUT_FNAME      STRING LEN=300                      1 --                                                                 
 __INPUT__/GWF0/CHD1                                INPUT_FNAME      STRING LEN=300                      1 --                                                                 
 __INPUT__/GWF0/DIS                                 NLAY             INTEGER                             1 --                                                                 
 __INPUT__/GWF0/DIS                                 NROW             INTEGER                             1 --                                                                 
 __INPUT__/GWF0/DIS                                 NCOL             INTEGER                             1 --                                                                 
 __INPUT__/GWF0                                     MODEL_SHAPE      INTEGER                             3 --                                                                 
 __INPUT__/GWF0                                     NCELLDIM         INTEGER                             1 --                                                                 
 __INPUT__/GWF0/DIS                                 DELR             DOUBLE                             10 --                                                                 
 __INPUT__/GWF0/DIS                                 DELC             DOUBLE                             10 --                                                                 
 __INPUT__/GWF0/DIS                                 TOP              DOUBLE                            100 --                                                                 
 __INPUT__/GWF0/DIS                                 BOTM             DOUBLE                            300 --                                                                 
 __INPUT__/GWF0/NPF                                 IPAKCB           INTEGER                             1 --                                                                 
 __INPUT__/GWF0/NPF                                 IREWET           INTEGER                             1 --                                                                 
 __INPUT__/GWF0/NPF                                 WETFCT           DOUBLE                              1 --                                                                 
 __INPUT__/GWF0/NPF                                 IWETIT           INTEGER                             1 --                                                                 
 __INPUT__/GWF0/NPF                                 IHDWET           INTEGER                             1 --                                                                 
 __INPUT__/GWF0/NPF                                 ICELLTYPE        INTEGER                           300 --                                                                 
 __INPUT__/GWF0/NPF                                 K                DOUBLE                            300 --                                                                 
 __INPUT__/GWF0/NPF                                 WETDRY           DOUBLE                            300 --                                                                 
 -----------------------------------------------------------------------------------------------------------------------------------------------------------------------------



 MEMORY MANAGER TOTAL STORAGE BY DATA TYPE, IN KILOBYTES
 -------------------------------
                    ALLOCATED   
 DATA TYPE           MEMORY     
 -------------------------------
 Character        1.5280000     
 Logical          0.0000000     
 Integer          1.2800000     
 Real             8.1600000     
 -------------------------------
 Total            10.968000     
 Virtual          0.0000000     
 -------------------------------



 OPENED gwf0.ic
 FILE TYPE:IC6       UNIT 1003   STATUS:OLD                 
 FORMAT:FORMATTED              ACCESS:SEQUENTIAL          
 ACTION:READ                


 OPENED gwf0.oc
 FILE TYPE:OC6       UNIT 1004   STATUS:OLD                 
 FORMAT:FORMATTED              ACCESS:SEQUENTIAL          
 ACTION:READ                

IDM input_load pkg=CHD1
IDM NF90_MAX_DIMS=1024
IDM NF90_MAX_VAR_DIMS=1024
varname=IPRPAK, type=KEYWORD
varname=IPAKCB, type=KEYWORD
varname=MAXBOUND, type=INTEGER
    ALL SIMULATION MEMORY INFORMATION WILL BE WRITTEN.

 DETAILED INFORMATION ON VARIABLES STORED IN THE MEMORY MANAGER
 -----------------------------------------------------------------------------------------------------------------------------------------------------------------------------
 ORIGIN                                             VARIABLE NAME    DATA TYPE             NUMBER OF ITEMS ASSOCIATED VARIABLE                                                
 -----------------------------------------------------------------------------------------------------------------------------------------------------------------------------
 __INPUT__/SIM/NAM                                  TDIS6            STRING LEN=300                      1 --                                                                 
 __INPUT__/SIM/NAM                                  MTYPE            STRING LEN=300                      2 --                                                                 
 __INPUT__/SIM/NAM                                  MFNAME           STRING LEN=300                      2 --                                                                 
 __INPUT__/SIM/NAM                                  MNAME            STRING LEN=300                      2 --                                                                 
 __INPUT__/SIM/NAM                                  EXGTYPE          STRING LEN=300                      1 --                                                                 
 __INPUT__/SIM/NAM                                  EXGFILE          STRING LEN=300                      1 --                                                                 
 __INPUT__/SIM/NAM                                  EXGMNAMEA        STRING LEN=300                      1 --                                                                 
 __INPUT__/SIM/NAM                                  EXGMNAMEB        STRING LEN=300                      1 --                                                                 
 __INPUT__/SIM/NAM                                  SOLUTIONGROUPNUM INTEGER                             1 --                                                                 
 __INPUT__/SIM/NAM                                  SLNTYPE          STRING LEN=300                      1 --                                                                 
 __INPUT__/SIM/NAM                                  SLNFNAME         STRING LEN=300                      1 --                                                                 
 __INPUT__/SIM/NAM                                  SLNMNAMES        STRING LEN=300                      1 --                                                                 
 __INPUT__/SIM/NAM                                  CONTINUE         INTEGER                             1 --                                                                 
 __INPUT__/SIM/NAM                                  NOCHECK          INTEGER                             1 --                                                                 
 __INPUT__/SIM/NAM                                  PRMEM            STRING LEN=300                      1 --                                                                 
 __INPUT__/SIM/NAM                                  MAXERRORS        INTEGER                             1 --                                                                 
 __INPUT__/SIM/NAM                                  PRINT_INPUT      INTEGER                             1 --                                                                 
 __INPUT__/SIM/NAM                                  MXITER           INTEGER                             1 --                                                                 
 __INPUT__/SIM                                      NUMMODELS        INTEGER                             1 --                                                                 
 __INPUT__/SIM                                      NUMEXCHANGES     INTEGER                             1 --                                                                 
 __INPUT__/GWF0/NAM                                 FTYPE            STRING LEN=300                      5 --                                                                 
 __INPUT__/GWF0/NAM                                 FNAME            STRING LEN=300                      5 --                                                                 
 __INPUT__/GWF0/NAM                                 PNAME            STRING LEN=300                      5 --                                                                 
 __INPUT__/GWF0                                     PKGTYPES         STRING LEN=7                        0 --                                                                 
 __INPUT__/GWF0                                     PKGNAMES         STRING LEN=16                       0 --                                                                 
 __INPUT__/GWF0                                     MEMPATHS         STRING LEN=50                       0 --                                                                 
 __INPUT__/GWF0                                     INUNITS          INTEGER                             0 --                                                                 
 __INPUT__/GWF0/DIS                                 INPUT_FNAME      STRING LEN=300                      1 --                                                                 
 __INPUT__/GWF0/NPF                                 INPUT_FNAME      STRING LEN=300                      1 --                                                                 
 __INPUT__/GWF0/CHD1                                INPUT_FNAME      STRING LEN=300                      1 --                                                                 
 __INPUT__/GWF0/DIS                                 NLAY             INTEGER                             1 --                                                                 
 __INPUT__/GWF0/DIS                                 NROW             INTEGER                             1 --                                                                 
 __INPUT__/GWF0/DIS                                 NCOL             INTEGER                             1 --                                                                 
 __INPUT__/GWF0                                     MODEL_SHAPE      INTEGER                             3 --                                                                 
 __INPUT__/GWF0                                     NCELLDIM         INTEGER                             1 --                                                                 
 __INPUT__/GWF0/DIS                                 DELR             DOUBLE                             10 --                                                                 
 __INPUT__/GWF0/DIS                                 DELC             DOUBLE                             10 --                                                                 
 __INPUT__/GWF0/DIS                                 TOP              DOUBLE                            100 --                                                                 
 __INPUT__/GWF0/DIS                                 BOTM             DOUBLE                            300 --                                                                 
 __INPUT__/GWF0/NPF                                 IPAKCB           INTEGER                             1 --                                                                 
 __INPUT__/GWF0/NPF                                 IREWET           INTEGER                             1 --                                                                 
 __INPUT__/GWF0/NPF                                 WETFCT           DOUBLE                              1 --                                                                 
 __INPUT__/GWF0/NPF                                 IWETIT           INTEGER                             1 --                                                                 
 __INPUT__/GWF0/NPF                                 IHDWET           INTEGER                             1 --                                                                 
 __INPUT__/GWF0/NPF                                 ICELLTYPE        INTEGER                           300 --                                                                 
 __INPUT__/GWF0/NPF                                 K                DOUBLE                            300 --                                                                 
 __INPUT__/GWF0/NPF                                 WETDRY           DOUBLE                            300 --                                                                 
 __INPUT__/GWF0/CHD1                                IPRPAK           INTEGER                             1 --                                                                 
 __INPUT__/GWF0/CHD1                                IPAKCB           INTEGER                             1 --                                                                 
 __INPUT__/GWF0/CHD1                                NAUX             INTEGER                             1 --                                                                 
 __INPUT__/GWF0/CHD1                                MAXBOUND         INTEGER                             1 --                                                                 
 __INPUT__/GWF0/CHD1                                IPER             INTEGER                             1 --                                                                 
 __INPUT__/GWF0/CHD1                                IONPER           INTEGER                             1 --                                                                 
 __INPUT__/GWF0/CHD1                                NBOUND           INTEGER                             1 --                                                                 
 __INPUT__/GWF0/CHD1                                NCPL             INTEGER                             1 --                                                                 
 __INPUT__/GWF0/CHD1                                AUXILIARY        STRING LEN=16                       0 --                                                                 
 __INPUT__/GWF0/CHD1                                CELLID           INTEGER                            90 --                                                                 
 __INPUT__/GWF0/CHD1                                HEAD             DOUBLE                             30 --                                                                 
 __INPUT__/GWF0/CHD1                                BOUNDNAME        STRING LEN=40                       0 --                                                                 
 __INPUT__/GWF0/CHD1                                AUXVAR           DOUBLE                              0 --                                                                 
 -----------------------------------------------------------------------------------------------------------------------------------------------------------------------------



 MEMORY MANAGER TOTAL STORAGE BY DATA TYPE, IN KILOBYTES
 -------------------------------
                    ALLOCATED   
 DATA TYPE           MEMORY     
 -------------------------------
 Character        1.5280000     
 Logical          0.0000000     
 Integer          1.6720000     
 Real             8.4000000     
 -------------------------------
 Total            11.600000     
 Virtual          0.0000000     
 -------------------------------



 OPENED gwf1.nam
 FILE TYPE:GWF6      UNIT 1005   STATUS:OLD                 
 FORMAT:FORMATTED              ACCESS:SEQUENTIAL          
 ACTION:READ                

 # File generated by Flopy version 3.5.0.dev0 on 10/30/2023 at 09:20:40.
Model NetCDF4 Input "gwf1.nc" opened NF90_NOWRITE, ncid=131072
IDM nc modeltype=GWF6
IDM load netcdf var model=GWF6, ptype=DIS6
IDM nc4_context pkg cname=GWF1, scname=DIS
IDM load nc model ctype=GWF
IDM load netcdf var model=GWF6, ptype=DIS6, sctype=DIS
Input parameter "NLAY" discovered for package "GWF1/DIS".
IDM load netcdf var model=GWF6, ptype=DIS6
IDM nc4_context pkg cname=GWF1, scname=DIS
IDM load nc model ctype=GWF
IDM load netcdf var model=GWF6, ptype=DIS6, sctype=DIS
Input parameter "NROW" discovered for package "GWF1/DIS".
IDM load netcdf var model=GWF6, ptype=DIS6
IDM nc4_context pkg cname=GWF1, scname=DIS
IDM load nc model ctype=GWF
IDM load netcdf var model=GWF6, ptype=DIS6, sctype=DIS
Input parameter "NCOL" discovered for package "GWF1/DIS".
IDM load netcdf var model=GWF6, ptype=DIS6
IDM nc4_context pkg cname=GWF1, scname=DIS
IDM load nc model ctype=GWF
IDM load netcdf var model=GWF6, ptype=DIS6, sctype=DIS
Input parameter "DELR" discovered for package "GWF1/DIS".
IDM load netcdf var model=GWF6, ptype=DIS6
IDM nc4_context pkg cname=GWF1, scname=DIS
IDM load nc model ctype=GWF
IDM load netcdf var model=GWF6, ptype=DIS6, sctype=DIS
Input parameter "DELC" discovered for package "GWF1/DIS".
IDM load netcdf var model=GWF6, ptype=DIS6
IDM nc4_context pkg cname=GWF1, scname=DIS
IDM load nc model ctype=GWF
IDM load netcdf var model=GWF6, ptype=DIS6, sctype=DIS
Input parameter "TOP" discovered for package "GWF1/DIS".
IDM load netcdf var model=GWF6, ptype=DIS6
IDM nc4_context pkg cname=GWF1, scname=DIS
IDM load nc model ctype=GWF
IDM load netcdf var model=GWF6, ptype=DIS6, sctype=DIS
Input parameter "BOTM" discovered for package "GWF1/DIS".
IDM load netcdf var model=GWF6, ptype=NPF6
IDM nc4_context pkg cname=GWF1, scname=DIS
IDM nc4_context pkg cname=GWF1, scname=NPF
IDM load nc model ctype=GWF
IDM load netcdf var model=GWF6, ptype=NPF6, sctype=NPF
Input parameter "SAVE_FLOWS" discovered for package "GWF1/NPF".
IDM load netcdf var model=GWF6, ptype=NPF6
IDM nc4_context pkg cname=GWF1, scname=DIS
IDM nc4_context pkg cname=GWF1, scname=NPF
IDM load nc model ctype=GWF
IDM load netcdf var model=GWF6, ptype=NPF6, sctype=NPF
Input parameter "REWET" discovered for package "GWF1/NPF".
IDM load netcdf var model=GWF6, ptype=NPF6
IDM nc4_context pkg cname=GWF1, scname=DIS
IDM nc4_context pkg cname=GWF1, scname=NPF
IDM load nc model ctype=GWF
IDM load netcdf var model=GWF6, ptype=NPF6, sctype=NPF
Input parameter "WETFCT" discovered for package "GWF1/NPF".
IDM load netcdf var model=GWF6, ptype=NPF6
IDM nc4_context pkg cname=GWF1, scname=DIS
IDM nc4_context pkg cname=GWF1, scname=NPF
IDM load nc model ctype=GWF
IDM load netcdf var model=GWF6, ptype=NPF6, sctype=NPF
Input parameter "IWETIT" discovered for package "GWF1/NPF".
IDM load netcdf var model=GWF6, ptype=NPF6
IDM nc4_context pkg cname=GWF1, scname=DIS
IDM nc4_context pkg cname=GWF1, scname=NPF
IDM load nc model ctype=GWF
IDM load netcdf var model=GWF6, ptype=NPF6, sctype=NPF
Input parameter "IHDWET" discovered for package "GWF1/NPF".
IDM load netcdf var model=GWF6, ptype=NPF6
IDM nc4_context pkg cname=GWF1, scname=DIS
IDM nc4_context pkg cname=GWF1, scname=NPF
IDM load nc model ctype=GWF
IDM load netcdf var model=GWF6, ptype=NPF6, sctype=NPF
Input parameter "ICELLTYPE" discovered for package "GWF1/NPF".
IDM load netcdf var model=GWF6, ptype=NPF6
IDM nc4_context pkg cname=GWF1, scname=DIS
IDM nc4_context pkg cname=GWF1, scname=NPF
IDM load nc model ctype=GWF
IDM load netcdf var model=GWF6, ptype=NPF6, sctype=NPF
Input parameter "K" discovered for package "GWF1/NPF".
IDM load netcdf var model=GWF6, ptype=NPF6
IDM nc4_context pkg cname=GWF1, scname=DIS
IDM nc4_context pkg cname=GWF1, scname=NPF
IDM load nc model ctype=GWF
IDM load netcdf var model=GWF6, ptype=NPF6, sctype=NPF
Input parameter "WETDRY" discovered for package "GWF1/NPF".
IDM load netcdf var model=GWF6, ptype=CHD6
IDM nc4_context pkg cname=GWF1, scname=DIS
IDM nc4_context pkg cname=GWF1, scname=NPF
IDM nc4_context pkg cname=GWF1, scname=CHD2
IDM load nc model ctype=GWF
IDM load netcdf var model=GWF6, ptype=CHD6, sctype=CHD
Input parameter "PRINT_INPUT" discovered for package "GWF1/CHD2".
IDM load netcdf var model=GWF6, ptype=CHD6
IDM nc4_context pkg cname=GWF1, scname=DIS
IDM nc4_context pkg cname=GWF1, scname=NPF
IDM nc4_context pkg cname=GWF1, scname=CHD2
IDM load nc model ctype=GWF
IDM load netcdf var model=GWF6, ptype=CHD6, sctype=CHD
Input parameter "SAVE_FLOWS" discovered for package "GWF1/CHD2".
IDM load netcdf var model=GWF6, ptype=CHD6
IDM nc4_context pkg cname=GWF1, scname=DIS
IDM nc4_context pkg cname=GWF1, scname=NPF
IDM nc4_context pkg cname=GWF1, scname=CHD2
IDM load nc model ctype=GWF
IDM load netcdf var model=GWF6, ptype=CHD6, sctype=CHD
Input parameter "MAXBOUND" discovered for package "GWF1/CHD2".
IDM load netcdf var model=GWF6, ptype=CHD6
IDM nc4_context pkg cname=GWF1, scname=DIS
IDM nc4_context pkg cname=GWF1, scname=NPF
IDM nc4_context pkg cname=GWF1, scname=CHD2
IDM load nc model ctype=GWF
IDM load netcdf var model=GWF6, ptype=CHD6
IDM nc4_context pkg cname=GWF1, scname=DIS
IDM nc4_context pkg cname=GWF1, scname=NPF
IDM nc4_context pkg cname=GWF1, scname=CHD2
IDM load nc model ctype=GWF
IDM load netcdf var model=GWF6, ptype=CHD6, sctype=CHD
Input parameter "CELLID" discovered for package "GWF1/CHD2".
IDM load netcdf var model=GWF6, ptype=CHD6
IDM nc4_context pkg cname=GWF1, scname=DIS
IDM nc4_context pkg cname=GWF1, scname=NPF
IDM nc4_context pkg cname=GWF1, scname=CHD2
IDM load nc model ctype=GWF
IDM load netcdf var model=GWF6, ptype=CHD6, sctype=CHD
Input parameter "HEAD" discovered for package "GWF1/CHD2".
IDM input_load pkg=DIS
IDM NF90_MAX_DIMS=1024
IDM NF90_MAX_VAR_DIMS=1024
varname=NLAY, type=INTEGER
varname=NROW, type=INTEGER
varname=NCOL, type=INTEGER
varname=DELR, type=DOUBLE1D
varname=DELC, type=DOUBLE1D
varname=TOP, type=DOUBLE2D
varname=BOTM, type=DOUBLE3D
    ALL SIMULATION MEMORY INFORMATION WILL BE WRITTEN.

 DETAILED INFORMATION ON VARIABLES STORED IN THE MEMORY MANAGER
 -----------------------------------------------------------------------------------------------------------------------------------------------------------------------------
 ORIGIN                                             VARIABLE NAME    DATA TYPE             NUMBER OF ITEMS ASSOCIATED VARIABLE                                                
 -----------------------------------------------------------------------------------------------------------------------------------------------------------------------------
 __INPUT__/SIM/NAM                                  TDIS6            STRING LEN=300                      1 --                                                                 
 __INPUT__/SIM/NAM                                  MTYPE            STRING LEN=300                      2 --                                                                 
 __INPUT__/SIM/NAM                                  MFNAME           STRING LEN=300                      2 --                                                                 
 __INPUT__/SIM/NAM                                  MNAME            STRING LEN=300                      2 --                                                                 
 __INPUT__/SIM/NAM                                  EXGTYPE          STRING LEN=300                      1 --                                                                 
 __INPUT__/SIM/NAM                                  EXGFILE          STRING LEN=300                      1 --                                                                 
 __INPUT__/SIM/NAM                                  EXGMNAMEA        STRING LEN=300                      1 --                                                                 
 __INPUT__/SIM/NAM                                  EXGMNAMEB        STRING LEN=300                      1 --                                                                 
 __INPUT__/SIM/NAM                                  SOLUTIONGROUPNUM INTEGER                             1 --                                                                 
 __INPUT__/SIM/NAM                                  SLNTYPE          STRING LEN=300                      1 --                                                                 
 __INPUT__/SIM/NAM                                  SLNFNAME         STRING LEN=300                      1 --                                                                 
 __INPUT__/SIM/NAM                                  SLNMNAMES        STRING LEN=300                      1 --                                                                 
 __INPUT__/SIM/NAM                                  CONTINUE         INTEGER                             1 --                                                                 
 __INPUT__/SIM/NAM                                  NOCHECK          INTEGER                             1 --                                                                 
 __INPUT__/SIM/NAM                                  PRMEM            STRING LEN=300                      1 --                                                                 
 __INPUT__/SIM/NAM                                  MAXERRORS        INTEGER                             1 --                                                                 
 __INPUT__/SIM/NAM                                  PRINT_INPUT      INTEGER                             1 --                                                                 
 __INPUT__/SIM/NAM                                  MXITER           INTEGER                             1 --                                                                 
 __INPUT__/SIM                                      NUMMODELS        INTEGER                             1 --                                                                 
 __INPUT__/SIM                                      NUMEXCHANGES     INTEGER                             1 --                                                                 
 __INPUT__/GWF0/NAM                                 FTYPE            STRING LEN=300                      5 --                                                                 
 __INPUT__/GWF0/NAM                                 FNAME            STRING LEN=300                      5 --                                                                 
 __INPUT__/GWF0/NAM                                 PNAME            STRING LEN=300                      5 --                                                                 
 __INPUT__/GWF0                                     PKGTYPES         STRING LEN=7                        5 --                                                                 
 __INPUT__/GWF0                                     PKGNAMES         STRING LEN=16                       5 --                                                                 
 __INPUT__/GWF0                                     MEMPATHS         STRING LEN=50                       5 --                                                                 
 __INPUT__/GWF0                                     INUNITS          INTEGER                             5 --                                                                 
 __INPUT__/GWF0/DIS                                 INPUT_FNAME      STRING LEN=300                      1 --                                                                 
 __INPUT__/GWF0/NPF                                 INPUT_FNAME      STRING LEN=300                      1 --                                                                 
 __INPUT__/GWF0/CHD1                                INPUT_FNAME      STRING LEN=300                      1 --                                                                 
 __INPUT__/GWF0/DIS                                 NLAY             INTEGER                             1 --                                                                 
 __INPUT__/GWF0/DIS                                 NROW             INTEGER                             1 --                                                                 
 __INPUT__/GWF0/DIS                                 NCOL             INTEGER                             1 --                                                                 
 __INPUT__/GWF0                                     MODEL_SHAPE      INTEGER                             3 --                                                                 
 __INPUT__/GWF0                                     NCELLDIM         INTEGER                             1 --                                                                 
 __INPUT__/GWF0/DIS                                 DELR             DOUBLE                             10 --                                                                 
 __INPUT__/GWF0/DIS                                 DELC             DOUBLE                             10 --                                                                 
 __INPUT__/GWF0/DIS                                 TOP              DOUBLE                            100 --                                                                 
 __INPUT__/GWF0/DIS                                 BOTM             DOUBLE                            300 --                                                                 
 __INPUT__/GWF0/NPF                                 IPAKCB           INTEGER                             1 --                                                                 
 __INPUT__/GWF0/NPF                                 IREWET           INTEGER                             1 --                                                                 
 __INPUT__/GWF0/NPF                                 WETFCT           DOUBLE                              1 --                                                                 
 __INPUT__/GWF0/NPF                                 IWETIT           INTEGER                             1 --                                                                 
 __INPUT__/GWF0/NPF                                 IHDWET           INTEGER                             1 --                                                                 
 __INPUT__/GWF0/NPF                                 ICELLTYPE        INTEGER                           300 --                                                                 
 __INPUT__/GWF0/NPF                                 K                DOUBLE                            300 --                                                                 
 __INPUT__/GWF0/NPF                                 WETDRY           DOUBLE                            300 --                                                                 
 __INPUT__/GWF0/CHD1                                IPRPAK           INTEGER                             1 --                                                                 
 __INPUT__/GWF0/CHD1                                IPAKCB           INTEGER                             1 --                                                                 
 __INPUT__/GWF0/CHD1                                NAUX             INTEGER                             1 --                                                                 
 __INPUT__/GWF0/CHD1                                MAXBOUND         INTEGER                             1 --                                                                 
 __INPUT__/GWF0/CHD1                                IPER             INTEGER                             1 --                                                                 
 __INPUT__/GWF0/CHD1                                IONPER           INTEGER                             1 --                                                                 
 __INPUT__/GWF0/CHD1                                NBOUND           INTEGER                             1 --                                                                 
 __INPUT__/GWF0/CHD1                                NCPL             INTEGER                             1 --                                                                 
 __INPUT__/GWF0/CHD1                                AUXILIARY        STRING LEN=16                       0 --                                                                 
 __INPUT__/GWF0/CHD1                                CELLID           INTEGER                            90 --                                                                 
 __INPUT__/GWF0/CHD1                                HEAD             DOUBLE                             30 --                                                                 
 __INPUT__/GWF0/CHD1                                BOUNDNAME        STRING LEN=40                       0 --                                                                 
 __INPUT__/GWF0/CHD1                                AUXVAR           DOUBLE                              0 --                                                                 
 __INPUT__/GWF1/NAM                                 FTYPE            STRING LEN=300                      5 --                                                                 
 __INPUT__/GWF1/NAM                                 FNAME            STRING LEN=300                      5 --                                                                 
 __INPUT__/GWF1/NAM                                 PNAME            STRING LEN=300                      5 --                                                                 
 __INPUT__/GWF1                                     PKGTYPES         STRING LEN=7                        0 --                                                                 
 __INPUT__/GWF1                                     PKGNAMES         STRING LEN=16                       0 --                                                                 
 __INPUT__/GWF1                                     MEMPATHS         STRING LEN=50                       0 --                                                                 
 __INPUT__/GWF1                                     INUNITS          INTEGER                             0 --                                                                 
 __INPUT__/GWF1/DIS                                 INPUT_FNAME      STRING LEN=300                      1 --                                                                 
 __INPUT__/GWF1/NPF                                 INPUT_FNAME      STRING LEN=300                      1 --                                                                 
 __INPUT__/GWF1/CHD2                                INPUT_FNAME      STRING LEN=300                      1 --                                                                 
 __INPUT__/GWF1/DIS                                 NLAY             INTEGER                             1 --                                                                 
 __INPUT__/GWF1/DIS                                 NROW             INTEGER                             1 --                                                                 
 __INPUT__/GWF1/DIS                                 NCOL             INTEGER                             1 --                                                                 
 __INPUT__/GWF1                                     MODEL_SHAPE      INTEGER                             3 --                                                                 
 __INPUT__/GWF1                                     NCELLDIM         INTEGER                             1 --                                                                 
 __INPUT__/GWF1/DIS                                 DELR             DOUBLE                              5 --                                                                 
 __INPUT__/GWF1/DIS                                 DELC             DOUBLE                             10 --                                                                 
 __INPUT__/GWF1/DIS                                 TOP              DOUBLE                             50 --                                                                 
 __INPUT__/GWF1/DIS                                 BOTM             DOUBLE                            150 --                                                                 
 -----------------------------------------------------------------------------------------------------------------------------------------------------------------------------



 MEMORY MANAGER TOTAL STORAGE BY DATA TYPE, IN KILOBYTES
 -------------------------------
                    ALLOCATED   
 DATA TYPE           MEMORY     
 -------------------------------
 Character        2.4580000     
 Logical          0.0000000     
 Integer          1.7200000     
 Real             10.120000     
 -------------------------------
 Total            14.298000     
 Virtual          0.0000000     
 -------------------------------


IDM input_load pkg=NPF
IDM NF90_MAX_DIMS=1024
IDM NF90_MAX_VAR_DIMS=1024
varname=IPAKCB, type=KEYWORD
varname=IREWET, type=KEYWORD
varname=WETFCT, type=DOUBLE
varname=IWETIT, type=INTEGER
varname=IHDWET, type=INTEGER
varname=ICELLTYPE, type=INTEGER1D
varname=K, type=DOUBLE1D
varname=WETDRY, type=DOUBLE1D
    ALL SIMULATION MEMORY INFORMATION WILL BE WRITTEN.

 DETAILED INFORMATION ON VARIABLES STORED IN THE MEMORY MANAGER
 -----------------------------------------------------------------------------------------------------------------------------------------------------------------------------
 ORIGIN                                             VARIABLE NAME    DATA TYPE             NUMBER OF ITEMS ASSOCIATED VARIABLE                                                
 -----------------------------------------------------------------------------------------------------------------------------------------------------------------------------
 __INPUT__/SIM/NAM                                  TDIS6            STRING LEN=300                      1 --                                                                 
 __INPUT__/SIM/NAM                                  MTYPE            STRING LEN=300                      2 --                                                                 
 __INPUT__/SIM/NAM                                  MFNAME           STRING LEN=300                      2 --                                                                 
 __INPUT__/SIM/NAM                                  MNAME            STRING LEN=300                      2 --                                                                 
 __INPUT__/SIM/NAM                                  EXGTYPE          STRING LEN=300                      1 --                                                                 
 __INPUT__/SIM/NAM                                  EXGFILE          STRING LEN=300                      1 --                                                                 
 __INPUT__/SIM/NAM                                  EXGMNAMEA        STRING LEN=300                      1 --                                                                 
 __INPUT__/SIM/NAM                                  EXGMNAMEB        STRING LEN=300                      1 --                                                                 
 __INPUT__/SIM/NAM                                  SOLUTIONGROUPNUM INTEGER                             1 --                                                                 
 __INPUT__/SIM/NAM                                  SLNTYPE          STRING LEN=300                      1 --                                                                 
 __INPUT__/SIM/NAM                                  SLNFNAME         STRING LEN=300                      1 --                                                                 
 __INPUT__/SIM/NAM                                  SLNMNAMES        STRING LEN=300                      1 --                                                                 
 __INPUT__/SIM/NAM                                  CONTINUE         INTEGER                             1 --                                                                 
 __INPUT__/SIM/NAM                                  NOCHECK          INTEGER                             1 --                                                                 
 __INPUT__/SIM/NAM                                  PRMEM            STRING LEN=300                      1 --                                                                 
 __INPUT__/SIM/NAM                                  MAXERRORS        INTEGER                             1 --                                                                 
 __INPUT__/SIM/NAM                                  PRINT_INPUT      INTEGER                             1 --                                                                 
 __INPUT__/SIM/NAM                                  MXITER           INTEGER                             1 --                                                                 
 __INPUT__/SIM                                      NUMMODELS        INTEGER                             1 --                                                                 
 __INPUT__/SIM                                      NUMEXCHANGES     INTEGER                             1 --                                                                 
 __INPUT__/GWF0/NAM                                 FTYPE            STRING LEN=300                      5 --                                                                 
 __INPUT__/GWF0/NAM                                 FNAME            STRING LEN=300                      5 --                                                                 
 __INPUT__/GWF0/NAM                                 PNAME            STRING LEN=300                      5 --                                                                 
 __INPUT__/GWF0                                     PKGTYPES         STRING LEN=7                        5 --                                                                 
 __INPUT__/GWF0                                     PKGNAMES         STRING LEN=16                       5 --                                                                 
 __INPUT__/GWF0                                     MEMPATHS         STRING LEN=50                       5 --                                                                 
 __INPUT__/GWF0                                     INUNITS          INTEGER                             5 --                                                                 
 __INPUT__/GWF0/DIS                                 INPUT_FNAME      STRING LEN=300                      1 --                                                                 
 __INPUT__/GWF0/NPF                                 INPUT_FNAME      STRING LEN=300                      1 --                                                                 
 __INPUT__/GWF0/CHD1                                INPUT_FNAME      STRING LEN=300                      1 --                                                                 
 __INPUT__/GWF0/DIS                                 NLAY             INTEGER                             1 --                                                                 
 __INPUT__/GWF0/DIS                                 NROW             INTEGER                             1 --                                                                 
 __INPUT__/GWF0/DIS                                 NCOL             INTEGER                             1 --                                                                 
 __INPUT__/GWF0                                     MODEL_SHAPE      INTEGER                             3 --                                                                 
 __INPUT__/GWF0                                     NCELLDIM         INTEGER                             1 --                                                                 
 __INPUT__/GWF0/DIS                                 DELR             DOUBLE                             10 --                                                                 
 __INPUT__/GWF0/DIS                                 DELC             DOUBLE                             10 --                                                                 
 __INPUT__/GWF0/DIS                                 TOP              DOUBLE                            100 --                                                                 
 __INPUT__/GWF0/DIS                                 BOTM             DOUBLE                            300 --                                                                 
 __INPUT__/GWF0/NPF                                 IPAKCB           INTEGER                             1 --                                                                 
 __INPUT__/GWF0/NPF                                 IREWET           INTEGER                             1 --                                                                 
 __INPUT__/GWF0/NPF                                 WETFCT           DOUBLE                              1 --                                                                 
 __INPUT__/GWF0/NPF                                 IWETIT           INTEGER                             1 --                                                                 
 __INPUT__/GWF0/NPF                                 IHDWET           INTEGER                             1 --                                                                 
 __INPUT__/GWF0/NPF                                 ICELLTYPE        INTEGER                           300 --                                                                 
 __INPUT__/GWF0/NPF                                 K                DOUBLE                            300 --                                                                 
 __INPUT__/GWF0/NPF                                 WETDRY           DOUBLE                            300 --                                                                 
 __INPUT__/GWF0/CHD1                                IPRPAK           INTEGER                             1 --                                                                 
 __INPUT__/GWF0/CHD1                                IPAKCB           INTEGER                             1 --                                                                 
 __INPUT__/GWF0/CHD1                                NAUX             INTEGER                             1 --                                                                 
 __INPUT__/GWF0/CHD1                                MAXBOUND         INTEGER                             1 --                                                                 
 __INPUT__/GWF0/CHD1                                IPER             INTEGER                             1 --                                                                 
 __INPUT__/GWF0/CHD1                                IONPER           INTEGER                             1 --                                                                 
 __INPUT__/GWF0/CHD1                                NBOUND           INTEGER                             1 --                                                                 
 __INPUT__/GWF0/CHD1                                NCPL             INTEGER                             1 --                                                                 
 __INPUT__/GWF0/CHD1                                AUXILIARY        STRING LEN=16                       0 --                                                                 
 __INPUT__/GWF0/CHD1                                CELLID           INTEGER                            90 --                                                                 
 __INPUT__/GWF0/CHD1                                HEAD             DOUBLE                             30 --                                                                 
 __INPUT__/GWF0/CHD1                                BOUNDNAME        STRING LEN=40                       0 --                                                                 
 __INPUT__/GWF0/CHD1                                AUXVAR           DOUBLE                              0 --                                                                 
 __INPUT__/GWF1/NAM                                 FTYPE            STRING LEN=300                      5 --                                                                 
 __INPUT__/GWF1/NAM                                 FNAME            STRING LEN=300                      5 --                                                                 
 __INPUT__/GWF1/NAM                                 PNAME            STRING LEN=300                      5 --                                                                 
 __INPUT__/GWF1                                     PKGTYPES         STRING LEN=7                        0 --                                                                 
 __INPUT__/GWF1                                     PKGNAMES         STRING LEN=16                       0 --                                                                 
 __INPUT__/GWF1                                     MEMPATHS         STRING LEN=50                       0 --                                                                 
 __INPUT__/GWF1                                     INUNITS          INTEGER                             0 --                                                                 
 __INPUT__/GWF1/DIS                                 INPUT_FNAME      STRING LEN=300                      1 --                                                                 
 __INPUT__/GWF1/NPF                                 INPUT_FNAME      STRING LEN=300                      1 --                                                                 
 __INPUT__/GWF1/CHD2                                INPUT_FNAME      STRING LEN=300                      1 --                                                                 
 __INPUT__/GWF1/DIS                                 NLAY             INTEGER                             1 --                                                                 
 __INPUT__/GWF1/DIS                                 NROW             INTEGER                             1 --                                                                 
 __INPUT__/GWF1/DIS                                 NCOL             INTEGER                             1 --                                                                 
 __INPUT__/GWF1                                     MODEL_SHAPE      INTEGER                             3 --                                                                 
 __INPUT__/GWF1                                     NCELLDIM         INTEGER                             1 --                                                                 
 __INPUT__/GWF1/DIS                                 DELR             DOUBLE                              5 --                                                                 
 __INPUT__/GWF1/DIS                                 DELC             DOUBLE                             10 --                                                                 
 __INPUT__/GWF1/DIS                                 TOP              DOUBLE                             50 --                                                                 
 __INPUT__/GWF1/DIS                                 BOTM             DOUBLE                            150 --                                                                 
 __INPUT__/GWF1/NPF                                 IPAKCB           INTEGER                             1 --                                                                 
 __INPUT__/GWF1/NPF                                 IREWET           INTEGER                             1 --                                                                 
 __INPUT__/GWF1/NPF                                 WETFCT           DOUBLE                              1 --                                                                 
 __INPUT__/GWF1/NPF                                 IWETIT           INTEGER                             1 --                                                                 
 __INPUT__/GWF1/NPF                                 IHDWET           INTEGER                             1 --                                                                 
 __INPUT__/GWF1/NPF                                 ICELLTYPE        INTEGER                           150 --                                                                 
 __INPUT__/GWF1/NPF                                 K                DOUBLE                            150 --                                                                 
 __INPUT__/GWF1/NPF                                 WETDRY           DOUBLE                            150 --                                                                 
 -----------------------------------------------------------------------------------------------------------------------------------------------------------------------------



 MEMORY MANAGER TOTAL STORAGE BY DATA TYPE, IN KILOBYTES
 -------------------------------
                    ALLOCATED   
 DATA TYPE           MEMORY     
 -------------------------------
 Character        2.4580000     
 Logical          0.0000000     
 Integer          2.3400000     
 Real             12.520000     
 -------------------------------
 Total            17.318000     
 Virtual          0.0000000     
 -------------------------------



 OPENED gwf1.ic
 FILE TYPE:IC6       UNIT 1006   STATUS:OLD                 
 FORMAT:FORMATTED              ACCESS:SEQUENTIAL          
 ACTION:READ                


 OPENED gwf1.oc
 FILE TYPE:OC6       UNIT 1007   STATUS:OLD                 
 FORMAT:FORMATTED              ACCESS:SEQUENTIAL          
 ACTION:READ                

IDM input_load pkg=CHD2
IDM NF90_MAX_DIMS=1024
IDM NF90_MAX_VAR_DIMS=1024
varname=IPRPAK, type=KEYWORD
varname=IPAKCB, type=KEYWORD
varname=MAXBOUND, type=INTEGER
    ALL SIMULATION MEMORY INFORMATION WILL BE WRITTEN.

 DETAILED INFORMATION ON VARIABLES STORED IN THE MEMORY MANAGER
 -----------------------------------------------------------------------------------------------------------------------------------------------------------------------------
 ORIGIN                                             VARIABLE NAME    DATA TYPE             NUMBER OF ITEMS ASSOCIATED VARIABLE                                                
 -----------------------------------------------------------------------------------------------------------------------------------------------------------------------------
 __INPUT__/SIM/NAM                                  TDIS6            STRING LEN=300                      1 --                                                                 
 __INPUT__/SIM/NAM                                  MTYPE            STRING LEN=300                      2 --                                                                 
[...]
 TMPSLN_1                                           CONVNMOD         INTEGER                             1 --                                                                 
 TMPSLN_1                                           NITERMAX         INTEGER                             1 --                                                                 
 TMPSLN_1                                           ITINNER          INTEGER                        100000 --                                                                 
 TMPSLN_1                                           LOCDV            INTEGER                             2 --                                                                 
 TMPSLN_1                                           DVMAX            DOUBLE                              2 --                                                                 
 TMPSLN_1                                           LOCDR            INTEGER                             2 --                                                                 
 TMPSLN_1                                           DRMAX            DOUBLE                              2 --                                                                 
 TMPSLN_1                                           CONVDVMAX        DOUBLE                         200000 --                                                                 
 TMPSLN_1                                           CONVLOCDV        INTEGER                        200000 --                                                                 
 TMPSLN_1                                           CONVDRMAX        DOUBLE                         200000 --                                                                 
 TMPSLN_1                                           CONVLOCDR        INTEGER                        200000 --                                                                 
 GWF0                                               X                DOUBLE                            300 SLN_1/X                                                            
 GWF0                                               RHS              DOUBLE                            300 SLN_1/RHS                                                          
 GWF0                                               IBOUND           INTEGER                           300 SLN_1/IBOUND                                                       
 GWF1                                               X                DOUBLE                            150 SLN_1/X                                                            
 GWF1                                               RHS              DOUBLE                            150 SLN_1/RHS                                                          
 GWF1                                               IBOUND           INTEGER                           150 SLN_1/IBOUND                                                       
 SLN_1                                              NROW             INTEGER                             1 --                                                                 
 SLN_1                                              NCOL             INTEGER                             1 --                                                                 
 SLN_1                                              NJA              INTEGER                             1 --                                                                 
 SLN_1                                              IA               INTEGER                           451 --                                                                 
 SLN_1                                              JA               INTEGER                          2700 --                                                                 
 SLN_1                                              AMAT             DOUBLE                           2700 --                                                                 
 GWF0/IC                                            STRT             DOUBLE                            300 --                                                                 
 GWF0/CHD1                                          NODELIST         INTEGER                            30 --                                                                 
 GWF0/CHD1                                          NOUPDATEAUXVAR   INTEGER                             0 --                                                                 
 GWF0/CHD1                                          BOUND            DOUBLE                             30 --                                                                 
 GWF0/CHD1                                          CONDINPUT        DOUBLE                              0 --                                                                 
 GWF0/CHD1                                          HCOF             DOUBLE                             30 --                                                                 
 GWF0/CHD1                                          RHS              DOUBLE                             30 --                                                                 
 GWF0/CHD1                                          SIMVALS          DOUBLE                             30 --                                                                 
 GWF0/CHD1                                          SIMTOMVR         DOUBLE                              0 --                                                                 
 GWF0/CHD1                                          AUXVAR           DOUBLE                              0 --                                                                 
 GWF0/CHD1                                          BOUNDNAME        STRING LEN=40                       0 --                                                                 
 GWF0/CHD1                                          BOUNDNAME_CST    STRING LEN=40                       0 --                                                                 
 GWF0/CHD1                                          CELLID           INTEGER                            90 __INPUT__/GWF0/CHD1/CELLID                                         
 GWF0/CHD1                                          BOUNDNAME_IDM    STRING LEN=40                       0 __INPUT__/GWF0/CHD1/BOUNDNAME                                      
 GWF0/CHD1                                          AUXVAR_IDM       DOUBLE                              0 __INPUT__/GWF0/CHD1/AUXVAR                                         
 GWF0/CHD1                                          RATECHDIN        DOUBLE                             30 --                                                                 
 GWF0/CHD1                                          RATECHDOUT       DOUBLE                             30 --                                                                 
 GWF0/CHD1                                          HEAD             DOUBLE                             30 __INPUT__/GWF0/CHD1/HEAD                                           
 GWF1/IC                                            STRT             DOUBLE                            150 --                                                                 
 GWF1/CHD2                                          NODELIST         INTEGER                            10 --                                                                 
 GWF1/CHD2                                          NOUPDATEAUXVAR   INTEGER                             0 --                                                                 
 GWF1/CHD2                                          BOUND            DOUBLE                             10 --                                                                 
 GWF1/CHD2                                          CONDINPUT        DOUBLE                              0 --                                                                 
 GWF1/CHD2                                          HCOF             DOUBLE                             10 --                                                                 
 GWF1/CHD2                                          RHS              DOUBLE                             10 --                                                                 
 GWF1/CHD2                                          SIMVALS          DOUBLE                             10 --                                                                 
 GWF1/CHD2                                          SIMTOMVR         DOUBLE                              0 --                                                                 
 GWF1/CHD2                                          AUXVAR           DOUBLE                              0 --                                                                 
 GWF1/CHD2                                          BOUNDNAME        STRING LEN=40                       0 --                                                                 
 GWF1/CHD2                                          BOUNDNAME_CST    STRING LEN=40                       0 --                                                                 
 GWF1/CHD2                                          CELLID           INTEGER                            30 __INPUT__/GWF1/CHD2/CELLID                                         
 GWF1/CHD2                                          BOUNDNAME_IDM    STRING LEN=40                       0 __INPUT__/GWF1/CHD2/BOUNDNAME                                      
 GWF1/CHD2                                          AUXVAR_IDM       DOUBLE                              0 __INPUT__/GWF1/CHD2/AUXVAR                                         
 GWF1/CHD2                                          RATECHDIN        DOUBLE                             10 --                                                                 
 GWF1/CHD2                                          RATECHDOUT       DOUBLE                             10 --                                                                 
 GWF1/CHD2                                          HEAD             DOUBLE                             10 __INPUT__/GWF1/CHD2/HEAD                                           
 SLN_1/IMSLINEAR                                    DVCLOSE          DOUBLE                              1 --                                                                 
 SLN_1/IMSLINEAR                                    RCLOSE           DOUBLE                              1 --                                                                 
 SLN_1/IMSLINEAR                                    ICNVGOPT         INTEGER                             1 --                                                                 
 SLN_1/IMSLINEAR                                    ITER1            INTEGER                             1 --                                                                 
 SLN_1/IMSLINEAR                                    ILINMETH         INTEGER                             1 --                                                                 
 SLN_1/IMSLINEAR                                    ISCL             INTEGER                             1 --                                                                 
 SLN_1/IMSLINEAR                                    IORD             INTEGER                             1 --                                                                 
 SLN_1/IMSLINEAR                                    NORTH            INTEGER                             1 --                                                                 
 SLN_1/IMSLINEAR                                    RELAX            DOUBLE                              1 --                                                                 
 SLN_1/IMSLINEAR                                    LEVEL            INTEGER                             1 --                                                                 
 SLN_1/IMSLINEAR                                    DROPTOL          DOUBLE                              1 --                                                                 
 SLN_1/IMSLINEAR                                    IDFPARAM         INTEGER                             1 --                                                                 
 SLN_1/IMSLINEAR                                    NJA              INTEGER                             1 --                                                                 
 SLN_1/IMSLINEAR                                    IOUT             INTEGER                             1 --                                                                 
 SLN_1/IMSLINEAR                                    IPC              INTEGER                             1 --                                                                 
 SLN_1/IMSLINEAR                                    IACPC            INTEGER                             1 --                                                                 
 SLN_1/IMSLINEAR                                    NITERC           INTEGER                             1 --                                                                 
 SLN_1/IMSLINEAR                                    NIABCGS          INTEGER                             1 --                                                                 
 SLN_1/IMSLINEAR                                    NIAPC            INTEGER                             1 --                                                                 
 SLN_1/IMSLINEAR                                    NJAPC            INTEGER                             1 --                                                                 
 SLN_1/IMSLINEAR                                    EPFACT           DOUBLE                              1 --                                                                 
 SLN_1/IMSLINEAR                                    L2NORM0          DOUBLE                              1 --                                                                 
 SLN_1/IMSLINEAR                                    NJLU             INTEGER                             1 --                                                                 
 SLN_1/IMSLINEAR                                    NJW              INTEGER                             1 --                                                                 
 SLN_1/IMSLINEAR                                    NWLU             INTEGER                             1 --                                                                 
 SLN_1/IMSLINEAR                                    DSCALE           DOUBLE                              1 --                                                                 
 SLN_1/IMSLINEAR                                    DSCALE2          DOUBLE                              1 --                                                                 
 SLN_1/IMSLINEAR                                    IAPC             INTEGER                           451 --                                                                 
 SLN_1/IMSLINEAR                                    JAPC             INTEGER                          2700 --                                                                 
 SLN_1/IMSLINEAR                                    APC              DOUBLE                           2700 --                                                                 
 SLN_1/IMSLINEAR                                    IW               INTEGER                           450 --                                                                 
 SLN_1/IMSLINEAR                                    W                DOUBLE                            450 --                                                                 
 SLN_1/IMSLINEAR                                    JLU              INTEGER                             1 --                                                                 
 SLN_1/IMSLINEAR                                    JW               INTEGER                             1 --                                                                 
 SLN_1/IMSLINEAR                                    WLU              DOUBLE                              1 --                                                                 
 SLN_1/IMSLINEAR                                    LORDER           INTEGER                             1 --                                                                 
 SLN_1/IMSLINEAR                                    IORDER           INTEGER                             1 --                                                                 
 SLN_1/IMSLINEAR                                    IARO             INTEGER                             2 --                                                                 
 SLN_1/IMSLINEAR                                    JARO             INTEGER                             1 --                                                                 
 SLN_1/IMSLINEAR                                    ARO              DOUBLE                              1 --                                                                 
 SLN_1/IMSLINEAR                                    ID               INTEGER                           450 --                                                                 
 SLN_1/IMSLINEAR                                    D                DOUBLE                            450 --                                                                 
 SLN_1/IMSLINEAR                                    P                DOUBLE                            450 --                                                                 
 SLN_1/IMSLINEAR                                    Q                DOUBLE                            450 --                                                                 
 SLN_1/IMSLINEAR                                    Z                DOUBLE                            450 --                                                                 
 SLN_1/IMSLINEAR                                    T                DOUBLE                              1 --                                                                 
 SLN_1/IMSLINEAR                                    V                DOUBLE                              1 --                                                                 
 SLN_1/IMSLINEAR                                    DHAT             DOUBLE                              1 --                                                                 
 SLN_1/IMSLINEAR                                    PHAT             DOUBLE                              1 --                                                                 
 SLN_1/IMSLINEAR                                    QHAT             DOUBLE                              1 --                                                                 
 -----------------------------------------------------------------------------------------------------------------------------------------------------------------------------



 MEMORY MANAGER TOTAL STORAGE BY DATA TYPE, IN MEGABYTES
 -------------------------------
                    ALLOCATED   
 DATA TYPE           MEMORY     
 -------------------------------
 Character        1.07110000E-02
 Logical          6.80000000E-05
 Integer          2.1060880     
 Real             3.4167760     
 -------------------------------
 Total            5.5336430     
 Virtual          0.0000000     
 -------------------------------



 Run end date and time (yyyy/mm/dd hh:mm:ss): 2023/10/30  9:20:40
 Elapsed run time:  0.046 Seconds
 Normal termination of simulation.
