                             MODFLOW 6 PROFESSIONAL
                U.S. GEOLOGICAL SURVEY MODULAR HYDROLOGIC MODEL
                          GROUNDWATER FLOW MODEL (GWF)
                  VERSION 6.5.0.dev0 (preliminary) 07/13/2023
                               ***DEVELOP MODE***

        MODFLOW 6 compiled Oct 30 2023 08:23:02 with GCC version 11.3.0

This software is preliminary or provisional and is subject to 
revision. It is being provided to meet the need for timely best 
science. The software has not received final approval by the U.S. 
Geological Survey (USGS). No warranty, expressed or implied, is made 
by the USGS or the U.S. Government as to the functionality of the 
software and related material nor shall the fact of release 
constitute any such warranty. The software is provided on the 
condition that neither the USGS nor the U.S. Government shall be held 
liable for any damages resulting from the authorized or unauthorized 
use of the software.


As a work of the United States Government, this USGS product is 
in the public domain within the United States. You can copy, 
modify, distribute, and perform the work, even for commercial 
purposes, all without asking permission. Additionally, USGS 
waives copyright and related rights in the work worldwide 
through CC0 1.0 Universal Public Domain Dedication 
(https://creativecommons.org/publicdomain/zero/1.0/).

The following GNU Lesser General Public License (LGPL) libraries
are used in this USGS product:

    SPARSKIT version 2.0
      ilut, luson, and qsplit 
      (https://www-users.cse.umn.edu/~saad/software/SPARSKIT/)

    RCM - Reverse Cuthill McKee Ordering
      (https://people.math.sc.edu/Burkardt/f_src/rcm/rcm.html)

    BLAS - Basic Linear Algebra Subprograms Level 1
      (https://people.math.sc.edu/Burkardt/f_src/blas1_d/blas1_d.html)

    SPARSEKIT - Sparse Matrix Utility Package
      amux, dperm, dvperm, rperm, and cperm
      (https://people.sc.fsu.edu/~jburkardt/f77_src/sparsekit/sparsekit.html)

The following BSD-3 License libraries are used in this USGS product:

    Modern Fortran DAG Library
      Copyright (c) 2018, Jacob Williams
      All rights reserved.
      (https://github.com/jacobwilliams/daglib)

The following 2-clause BSD License library is used in this
USGS product:

    PETSc, the Portable, Extensible Toolkit for Scientific
    Computation Library
      Copyright (c) 1991-2021, UChicago Argonne, LLC
      and the PETSc Development Team All rights reserved.
      (https://petsc.org/release/)

MODFLOW 6 compiler options: -cpp -I src/libmf6core.a.p -I src -I ../src -I
src/libmf6_external.a.p -I
/home/mreno/.clone/external/petsc/arch-linux-c-debug/include -I
/home/mreno/.clone/external/petsc/include -I
/home/mreno/.clone/external/petsc/arch-linux-c-debug/lib -I
/home/mreno/miniconda3/envs/modflow6/include -I -fdiagnostics-color=always
-imultiarch x86_64-linux-gnu -D _FILE_OFFSET_BITS=64 -D __linux__ -D
__WITH_PETSC__ -D __WITH_MPI__ -D __WITH_NETCDF__ -mtune=generic
-march=x86-64 -g -O2 -Wall -Wpedantic -Wcharacter-truncation
-Wno-unused-dummy-argument -Wno-intrinsic-shadow -Wno-maybe-uninitialized
-Wno-uninitialized -std=f2008 -fall-intrinsics -fbacktrace -fcheck=all
-ffpe-trap=overflow,zero,invalid -ffpe-summary=overflow
-ffpe-trap=overflow,zero,invalid -fPIC -J src/libmf6core.a.p
-fpre-include=/usr/include/finclude/math-vector-fortran.h

System command used to initiate simulation:
/home/mreno/.clone/usgs/w/netcdf/2/modflow6/bin/mf6

MODFLOW was compiled using uniform precision.

Real Variables
  KIND: 8
  TINY (smallest non-zero value):    2.225074-308
  HUGE (largest value):    1.797693+308
  PRECISION: 15
  SIZE IN BITS: 64

Integer Variables
  KIND: 4
  HUGE (largest value): 2147483647
  SIZE IN BITS: 32

Long Integer Variables
  KIND: 8
  HUGE (largest value): 9223372036854775807
  SIZE IN BITS: 64

Logical Variables
  KIND: 4
  SIZE IN BITS: 32

 NAMEFILE OPTIONS:
 END NAMEFILE OPTIONS:

 DIS -- STRUCTURED GRID DISCRETIZATION PACKAGE, VERSION 2 : 3/27/2014 - INPUT READ FROM MEMPATH: __INPUT__/GWF0/DIS                                


 NPF -- NODE PROPERTY FLOW PACKAGE, VERSION 1, 3/30/2015 INPUT READ FROM MEMPATH: __INPUT__/GWF0/NPF                                

 Setting Discretization Options
 End Setting Discretization Options

 Setting Discretization Dimensions
    NLAY = 3
    NROW = 10
    NCOL = 10
 End Setting Discretization Dimensions

 Setting Discretization Griddata
    DELR set from input file
    DELC set from input file
    TOP set from input file
    BOTM set from input file
 End Setting Discretization Griddata

 Setting NPF Options
    Rewetting is active.
    Wetting factor (WETFCT) has been set to:     1.00000    
    Wetting iteration interval (IWETIT) has been set to:     1
    Head rewet equation (IHDWET) has been set to:     1
 End Setting NPF Options

 Setting NPF Griddata
    ICELLTYPE set from input file
    K set from input file
    K33 not provided.  Setting K33 = K.
    K22 not provided.  Setting K22 = K.
    WETDRY set from input file
 End Setting NPF Griddata


 CHD   -- CHD PACKAGE, VERSION 8, 2/22/2014 INPUT READ FROM MEMPATH: __INPUT__/GWF0/CHD1                               

 PROCESSING CHD BASE OPTIONS
    LISTS OF CHD CELLS WILL BE PRINTED.
 END OF CHD BASE OPTIONS

 PROCESSING CHD BASE DIMENSIONS
    MAXBOUND =      30
 END OF CHD BASE DIMENSIONS

 IC -- INITIAL CONDITIONS PACKAGE, VERSION 8, 3/28/2015 INPUT READ FROM UNIT 1005
 # File generated by Flopy version 3.5.0.dev0 on 10/30/2023 at 09:20:40.
 PROCESSING GRIDDATA

     INITIAL HEAD =  -40.00000    
 END PROCESSING GRIDDATA

 CELL CONVERSIONS FOR ITER.=0  STEP=0  PERIOD=0   (NODE or LRC)
     DRY             (1,1,1) DRY             (1,1,2) DRY             (1,1,3) DRY             (1,1,4) DRY             (1,1,5)
     DRY             (1,1,6) DRY             (1,1,7) DRY             (1,1,8) DRY             (1,1,9) DRY            (1,1,10)
     DRY             (1,2,1) DRY             (1,2,2) DRY             (1,2,3) DRY             (1,2,4) DRY             (1,2,5)
     DRY             (1,2,6) DRY             (1,2,7) DRY             (1,2,8) DRY             (1,2,9) DRY            (1,2,10)
     DRY             (1,3,1) DRY             (1,3,2) DRY             (1,3,3) DRY             (1,3,4) DRY             (1,3,5)
     DRY             (1,3,6) DRY             (1,3,7) DRY             (1,3,8) DRY             (1,3,9) DRY            (1,3,10)
     DRY             (1,4,1) DRY             (1,4,2) DRY             (1,4,3) DRY             (1,4,4) DRY             (1,4,5)
     DRY             (1,4,6) DRY             (1,4,7) DRY             (1,4,8) DRY             (1,4,9) DRY            (1,4,10)
     DRY             (1,5,1) DRY             (1,5,2) DRY             (1,5,3) DRY             (1,5,4) DRY             (1,5,5)
     DRY             (1,5,6) DRY             (1,5,7) DRY             (1,5,8) DRY             (1,5,9) DRY            (1,5,10)
     DRY             (1,6,1) DRY             (1,6,2) DRY             (1,6,3) DRY             (1,6,4) DRY             (1,6,5)
     DRY             (1,6,6) DRY             (1,6,7) DRY             (1,6,8) DRY             (1,6,9) DRY            (1,6,10)
     DRY             (1,7,1) DRY             (1,7,2) DRY             (1,7,3) DRY             (1,7,4) DRY             (1,7,5)
     DRY             (1,7,6) DRY             (1,7,7) DRY             (1,7,8) DRY             (1,7,9) DRY            (1,7,10)
     DRY             (1,8,1) DRY             (1,8,2) DRY             (1,8,3) DRY             (1,8,4) DRY             (1,8,5)
     DRY             (1,8,6) DRY             (1,8,7) DRY             (1,8,8) DRY             (1,8,9) DRY            (1,8,10)
     DRY             (1,9,1) DRY             (1,9,2) DRY             (1,9,3) DRY             (1,9,4) DRY             (1,9,5)
     DRY             (1,9,6) DRY             (1,9,7) DRY             (1,9,8) DRY             (1,9,9) DRY            (1,9,10)
     DRY            (1,10,1) DRY            (1,10,2) DRY            (1,10,3) DRY            (1,10,4) DRY            (1,10,5)
     DRY            (1,10,6) DRY            (1,10,7) DRY            (1,10,8) DRY            (1,10,9) DRY           (1,10,10)
     DRY             (2,1,1) DRY             (2,1,2) DRY             (2,1,3) DRY             (2,1,4) DRY             (2,1,5)
     DRY             (2,1,6) DRY             (2,1,7) DRY             (2,1,8) DRY             (2,1,9) DRY            (2,1,10)
     DRY             (2,2,1) DRY             (2,2,2) DRY             (2,2,3) DRY             (2,2,4) DRY             (2,2,5)
     DRY             (2,2,6) DRY             (2,2,7) DRY             (2,2,8) DRY             (2,2,9) DRY            (2,2,10)
     DRY             (2,3,1) DRY             (2,3,2) DRY             (2,3,3) DRY             (2,3,4) DRY             (2,3,5)
     DRY             (2,3,6) DRY             (2,3,7) DRY             (2,3,8) DRY             (2,3,9) DRY            (2,3,10)
     DRY             (2,4,1) DRY             (2,4,2) DRY             (2,4,3) DRY             (2,4,4) DRY             (2,4,5)
     DRY             (2,4,6) DRY             (2,4,7) DRY             (2,4,8) DRY             (2,4,9) DRY            (2,4,10)
     DRY             (2,5,1) DRY             (2,5,2) DRY             (2,5,3) DRY             (2,5,4) DRY             (2,5,5)
     DRY             (2,5,6) DRY             (2,5,7) DRY             (2,5,8) DRY             (2,5,9) DRY            (2,5,10)
     DRY             (2,6,1) DRY             (2,6,2) DRY             (2,6,3) DRY             (2,6,4) DRY             (2,6,5)
     DRY             (2,6,6) DRY             (2,6,7) DRY             (2,6,8) DRY             (2,6,9) DRY            (2,6,10)
     DRY             (2,7,1) DRY             (2,7,2) DRY             (2,7,3) DRY             (2,7,4) DRY             (2,7,5)
     DRY             (2,7,6) DRY             (2,7,7) DRY             (2,7,8) DRY             (2,7,9) DRY            (2,7,10)
     DRY             (2,8,1) DRY             (2,8,2) DRY             (2,8,3) DRY             (2,8,4) DRY             (2,8,5)
     DRY             (2,8,6) DRY             (2,8,7) DRY             (2,8,8) DRY             (2,8,9) DRY            (2,8,10)
     DRY             (2,9,1) DRY             (2,9,2) DRY             (2,9,3) DRY             (2,9,4) DRY             (2,9,5)
     DRY             (2,9,6) DRY             (2,9,7) DRY             (2,9,8) DRY             (2,9,9) DRY            (2,9,10)
     DRY            (2,10,1) DRY            (2,10,2) DRY            (2,10,3) DRY            (2,10,4) DRY            (2,10,5)
     DRY            (2,10,6) DRY            (2,10,7) DRY            (2,10,8) DRY            (2,10,9) DRY           (2,10,10)
    BINARY GRID INFORMATION WILL BE WRITTEN TO:
      UNIT NUMBER: 1019
      FILE NAME: gwf0.dis.grb

 OPENED gwf0.dis.grb
 FILE TYPE:DATA(BINARY)   UNIT 1019   STATUS:REPLACE             
 FORMAT:UNFORMATTED            ACCESS:STREAM              
 ACTION:READWRITE           

      THE LAST TIME STEP WILL BE PRINTED
      THE LAST TIME STEP WILL BE PRINTED
 # File generated by Flopy version 3.5.0.dev0 on 10/30/2023 at 09:20:40.

 PROCESSING OC OPTIONS

    BUDGET INFORMATION WILL BE WRITTEN TO:
      UNIT NUMBER: 1020
      FILE NAME: gwf0.cbc

 OPENED gwf0.cbc
 FILE TYPE:DATA(BINARY)   UNIT 1020   STATUS:REPLACE             
 FORMAT:UNFORMATTED            ACCESS:STREAM              
 ACTION:READWRITE           

    HEAD INFORMATION WILL BE WRITTEN TO:
      UNIT NUMBER: 1021
      FILE NAME: gwf0.hds

 OPENED gwf0.hds
 FILE TYPE:DATA(BINARY)   UNIT 1021   STATUS:REPLACE             
 FORMAT:UNFORMATTED            ACCESS:STREAM              
 ACTION:READWRITE           

 END OF OC OPTIONS

start timestep kper="1" kstp="1" mode="normal"


 BEGIN READING OUTPUT CONTROL FOR STRESS PERIOD 1
      THE LAST TIME STEP WILL BE SAVED
      THE LAST TIME STEP WILL BE PRINTED
      THE LAST TIME STEP WILL BE PRINTED

 END READING OUTPUT CONTROL FOR STRESS PERIOD 1
 ---------------------------------------------------
  CHD NO.    LAYER    ROW     COL         HEAD      
 ---------------------------------------------------
     1         1       1       1     100.000000     
     2         1       2       1     100.000000     
     3         1       3       1     100.000000     
     4         1       4       1     100.000000     
     5         1       5       1     100.000000     
     6         1       6       1     100.000000     
     7         1       7       1     100.000000     
     8         1       8       1     100.000000     
     9         1       9       1     100.000000     
     10        1      10       1     100.000000     
     11        2       1       1     100.000000     
     12        2       2       1     100.000000     
     13        2       3       1     100.000000     
     14        2       4       1     100.000000     
     15        2       5       1     100.000000     
     16        2       6       1     100.000000     
     17        2       7       1     100.000000     
     18        2       8       1     100.000000     
     19        2       9       1     100.000000     
     20        2      10       1     100.000000     
     21        3       1       1     100.000000     
     22        3       2       1     100.000000     
     23        3       3       1     100.000000     
     24        3       4       1     100.000000     
     25        3       5       1     100.000000     
     26        3       6       1     100.000000     
     27        3       7       1     100.000000     
     28        3       8       1     100.000000     
     29        3       9       1     100.000000     
     30        3      10       1     100.000000     
 ---------------------------------------------------



 CELL CONVERSIONS FOR ITER.=2  STEP=1  PERIOD=1   (NODE or LRC)
     WET             (2,1,2) WET             (2,1,3) WET             (2,1,4) WET             (2,1,5) WET             (2,1,6)
     WET             (2,1,7) WET             (2,1,8) WET             (2,1,9) WET            (2,1,10) WET             (2,2,2)
     WET             (2,2,3) WET             (2,2,4) WET             (2,2,5) WET             (2,2,6) WET             (2,2,7)
     WET             (2,2,8) WET             (2,2,9) WET            (2,2,10) WET             (2,3,2) WET             (2,3,3)
     WET             (2,3,4) WET             (2,3,5) WET             (2,3,6) WET             (2,3,7) WET             (2,3,8)
     WET             (2,3,9) WET            (2,3,10) WET             (2,4,2) WET             (2,4,3) WET             (2,4,4)
     WET             (2,4,5) WET             (2,4,6) WET             (2,4,7) WET             (2,4,8) WET             (2,4,9)
     WET            (2,4,10) WET             (2,5,2) WET             (2,5,3) WET             (2,5,4) WET             (2,5,5)
     WET             (2,5,6) WET             (2,5,7) WET             (2,5,8) WET             (2,5,9) WET            (2,5,10)
     WET             (2,6,2) WET             (2,6,3) WET             (2,6,4) WET             (2,6,5) WET             (2,6,6)
     WET             (2,6,7) WET             (2,6,8) WET             (2,6,9) WET            (2,6,10) WET             (2,7,2)
     WET             (2,7,3) WET             (2,7,4) WET             (2,7,5) WET             (2,7,6) WET             (2,7,7)
     WET             (2,7,8) WET             (2,7,9) WET            (2,7,10) WET             (2,8,2) WET             (2,8,3)
     WET             (2,8,4) WET             (2,8,5) WET             (2,8,6) WET             (2,8,7) WET             (2,8,8)
     WET             (2,8,9) WET            (2,8,10) WET             (2,9,2) WET             (2,9,3) WET             (2,9,4)
     WET             (2,9,5) WET             (2,9,6) WET             (2,9,7) WET             (2,9,8) WET             (2,9,9)
     WET            (2,9,10) WET            (2,10,2) WET            (2,10,3) WET            (2,10,4) WET            (2,10,5)
     WET            (2,10,6) WET            (2,10,7) WET            (2,10,8) WET            (2,10,9) WET           (2,10,10)

 CELL CONVERSIONS FOR ITER.=3  STEP=1  PERIOD=1   (NODE or LRC)
     WET             (1,1,2) WET             (1,1,3) WET             (1,1,4) WET             (1,1,5) WET             (1,1,6)
     WET             (1,1,7) WET             (1,2,2) WET             (1,2,3) WET             (1,2,4) WET             (1,2,5)
     WET             (1,2,6) WET             (1,2,7) WET             (1,3,2) WET             (1,3,3) WET             (1,3,4)
     WET             (1,3,5) WET             (1,3,6) WET             (1,3,7) WET             (1,4,2) WET             (1,4,3)
     WET             (1,4,4) WET             (1,4,5) WET             (1,4,6) WET             (1,4,7) WET             (1,5,2)
     WET             (1,5,3) WET             (1,5,4) WET             (1,5,5) WET             (1,5,6) WET             (1,5,7)
     WET             (1,6,2) WET             (1,6,3) WET             (1,6,4) WET             (1,6,5) WET             (1,6,6)
     WET             (1,6,7) WET             (1,7,2) WET             (1,7,3) WET             (1,7,4) WET             (1,7,5)
     WET             (1,7,6) WET             (1,7,7) WET             (1,8,2) WET             (1,8,3) WET             (1,8,4)
     WET             (1,8,5) WET             (1,8,6) WET             (1,8,7) WET             (1,9,2) WET             (1,9,3)
     WET             (1,9,4) WET             (1,9,5) WET             (1,9,6) WET             (1,9,7) WET            (1,10,2)
     WET            (1,10,3) WET            (1,10,4) WET            (1,10,5) WET            (1,10,6) WET            (1,10,7)

 CELL CONVERSIONS FOR ITER.=4  STEP=1  PERIOD=1   (NODE or LRC)
     WET             (1,1,8) WET             (1,1,9) WET             (1,2,8) WET             (1,2,9) WET             (1,3,8)
     WET             (1,3,9) WET             (1,4,8) WET             (1,4,9) WET             (1,5,8) WET             (1,5,9)
     WET             (1,6,8) WET             (1,6,9) WET             (1,7,8) WET             (1,7,9) WET             (1,8,8)
     WET             (1,8,9) WET             (1,9,8) WET             (1,9,9) WET            (1,10,8) WET            (1,10,9)

 SLN_1 INNER ITERATION SUMMARY
 --------------------------------------------------------------------------------------------------------------------------------------
      TOTAL      OUTER      INNER                                                            MAXIMUM                                   
  ITERATION  ITERATION  ITERATION  MAXIMUM CHANGE      MAXIMUM CHANGE MODEL-(CELLID)        RESIDUAL    MAXIMUM RESIDUAL MODEL-(CELLID)
 --------------------------------------------------------------------------------------------------------------------------------------
          1          1          1       131.69092                     1_GWF-(3,10,2)      -1396.9690                      1_GWF-(3,1,7)
          2          1          2       30.987299                      1_GWF-(3,1,9)       649.68531                     1_GWF-(3,10,7)
          3          1          3      -12.122993                     1_GWF-(3,10,7)       325.20086                     1_GWF-(3,10,4)
          4          1          4      -2.9564173                     1_GWF-(3,10,4)       130.85171                     1_GWF-(3,10,3)
          5          1          5      0.96698969                     1_GWF-(3,2,10)       43.895469                      1_GWF-(3,9,6)
          6          1          6     -0.20077181                     1_GWF-(3,7,10)       14.469602                      1_GWF-(3,9,5)
          7          1          7      0.11768277                      1_GWF-(3,4,9)       7.1733112                     1_GWF-(3,10,2)
          8          1          8 -2.42946833E-02                      1_GWF-(3,1,4)       1.7615753                     1_GWF-(3,10,2)
          9          1          9  1.01573578E-02                      1_GWF-(3,4,7)      0.54237519                     1_GWF-(3,10,2)
         10          1         10 -2.11573418E-03                      1_GWF-(3,1,5)      0.12484963                      1_GWF-(3,8,5)
         11          1         11  8.51632251E-04                     1_GWF-(3,8,10)  4.91713064E-02                      1_GWF-(3,7,8)
         12          1         12 -2.06030662E-04                      1_GWF-(3,7,8)  1.15829688E-02                      1_GWF-(3,2,4)
         13          1         13 -5.27206711E-05                      1_GWF-(3,2,4)  3.31504314E-03                      1_GWF-(3,6,9)
         14          2          1       94.200344                      1_GWF-(2,1,2)       3177.3876                      1_GWF-(3,1,6)
         15          2          2      -20.320224                     1_GWF-(3,3,10)       1498.4570                     1_GWF-(3,1,10)
         16          2          3      -5.5761110                     1_GWF-(3,1,10)      -452.58613                     1_GWF-(3,2,10)
         17          2          4      -1.2535692                     1_GWF-(3,1,10)      -180.84405                     1_GWF-(3,10,2)
         18          2          5     -0.36259384                      1_GWF-(3,6,9)       91.668690                     1_GWF-(3,2,10)
         19          2          6     -0.16770395                     1_GWF-(3,2,10)      -43.352018                     1_GWF-(3,10,2)
         20          2          7 -4.50886707E-02                      1_GWF-(3,3,7)      -10.604891                     1_GWF-(3,10,2)
         21          2          8 -1.13558210E-02                      1_GWF-(3,3,8)      -3.2355471                     1_GWF-(3,10,2)
         22          2          9  3.97280861E-03                      1_GWF-(2,8,8)      -1.0817972                     1_GWF-(3,10,2)
         23          2         10 -1.70012205E-03                      1_GWF-(2,9,9)      0.31446557                      1_GWF-(3,4,8)
         24          2         11  2.94262546E-04                      1_GWF-(3,3,3) -8.95346304E-02                      1_GWF-(3,8,5)
         25          2         12  1.25905827E-04                      1_GWF-(2,1,6) -3.29272897E-02                      1_GWF-(3,7,7)
         26          2         13 -3.14381136E-05                      1_GWF-(2,2,8)  6.39611477E-03                      1_GWF-(3,3,8)
         27          3          1       44.829603                      1_GWF-(1,1,2)      -4548.5581                     1_GWF-(3,10,7)
         28          3          2      -16.343517                      1_GWF-(3,3,8)      -2210.2135                      1_GWF-(3,2,7)
         29          3          3      -6.0364550                      1_GWF-(3,1,9)      -1247.9566                      1_GWF-(3,2,9)
         30          3          4      -2.5038438                     1_GWF-(3,1,10)      -671.68748                      1_GWF-(3,1,8)
         31          3          5     -0.58594676                      1_GWF-(2,3,9)      -283.18090                     1_GWF-(3,1,10)
         32          3          6     -0.14137608                      1_GWF-(2,5,8)      -112.57726                     1_GWF-(3,1,10)
         33          3          7 -7.98080339E-02                     1_GWF-(2,3,10)      -56.721618                      1_GWF-(3,2,8)
         34          3          8 -3.59404812E-02                      1_GWF-(2,9,9)      -17.551310                      1_GWF-(3,9,9)
         35          3          9 -1.31345058E-02                    1_GWF-(2,10,10)      -5.9358727                     1_GWF-(3,8,10)
         36          3         10 -4.99807818E-03                    1_GWF-(2,10,10)       3.0720952                     1_GWF-(3,1,10)
         37          3         11  2.50131740E-03                     1_GWF-(3,10,8)      -1.0361102                     1_GWF-(2,2,10)
         38          3         12  6.69432690E-04                     1_GWF-(2,2,10)     -0.38574351                      1_GWF-(3,2,7)
         39          3         13 -2.08816014E-04                      1_GWF-(3,4,6)     -0.12891684                      1_GWF-(3,1,9)
         40          3         14  1.16290043E-04                      1_GWF-(3,3,6) -5.75243511E-02                     1_GWF-(3,1,10)
         41          3         15  3.11246274E-05                      1_GWF-(3,8,9) -3.68626295E-02                     1_GWF-(3,1,10)
         42          3         16  1.20986824E-05                      1_GWF-(2,9,7) -8.23556500E-03                     1_GWF-(3,1,10)
         43          4          1       12.804094                     1_GWF-(1,10,8)      -12596.423                      1_GWF-(1,1,8)
         44          4          2       7.8444712                      1_GWF-(1,3,9)      -3114.7535                      1_GWF-(1,1,8)
         45          4          3      -3.9586385                      1_GWF-(3,2,7)       867.17707                     1_GWF-(3,2,10)
         46          4          4      -1.0907583                      1_GWF-(3,1,7)       284.27639                      1_GWF-(2,4,8)
         47          4          5     -0.22188295                      1_GWF-(3,8,5)      -172.64729                     1_GWF-(3,9,10)
         48          4          6     -0.14790370                    1_GWF-(2,10,10)      -91.584218                      1_GWF-(3,9,9)
         49          4          7  6.30039882E-02                      1_GWF-(3,4,7)      -60.363783                     1_GWF-(3,2,10)
         50          4          8 -4.60394937E-02                     1_GWF-(2,7,10)       18.900665                     1_GWF-(2,3,10)
         51          4          9 -1.86895931E-02                     1_GWF-(2,9,10)      -8.0629861                      1_GWF-(3,8,7)
         52          4         10  4.45160050E-03                      1_GWF-(3,3,5)       3.8008999                     1_GWF-(3,2,10)
         53          4         11 -3.00121746E-03                      1_GWF-(1,7,6)       1.5938114                    1_GWF-(2,10,10)
         54          4         12  1.21151160E-03                      1_GWF-(3,9,8)      0.72887600                    1_GWF-(2,10,10)
         55          4         13  5.46644952E-04                     1_GWF-(2,2,10)     -0.25395446                      1_GWF-(3,4,9)
         56          4         14  1.55306945E-04                      1_GWF-(3,4,9)     -0.11309616                     1_GWF-(3,2,10)
         57          4         15  7.99612235E-05                     1_GWF-(3,2,10) -2.68592076E-02                     1_GWF-(3,2,10)
         58          4         16 -1.76608879E-05                      1_GWF-(1,5,7) -1.66991217E-02                      1_GWF-(3,6,7)
         59          4         17  8.52888340E-06                     1_GWF-(3,10,8) -5.04867117E-03                      1_GWF-(3,5,7)
         60          4         18 -3.72748421E-06                      1_GWF-(3,9,5) -2.46738878E-03                      1_GWF-(3,2,7)
         61          5          1      -2.3242252                     1_GWF-(1,10,7)      -1822.0071                      1_GWF-(3,4,7)
         62          5          2       2.1935027                      1_GWF-(3,9,7)      -717.92986                      1_GWF-(3,1,7)
         63          5          3      0.80674812                      1_GWF-(3,1,7)      -316.45257                      1_GWF-(3,1,7)
         64          5          4     -0.25031872                     1_GWF-(1,10,8)      -108.35665                      1_GWF-(3,9,8)
         65          5          5     -0.10428065                     1_GWF-(3,2,10)      -46.301919                      1_GWF-(3,2,6)
         66          5          6 -3.68749004E-02                     1_GWF-(2,9,10)      -18.960162                     1_GWF-(3,10,8)
         67          5          7 -2.13706270E-02                     1_GWF-(2,6,10)      -13.102291                     1_GWF-(3,9,10)
         68          5          8 -9.13105696E-03                     1_GWF-(2,2,10)      -7.6997024                      1_GWF-(3,9,9)
         69          5          9 -4.69642331E-03                     1_GWF-(2,7,10)      -2.2348193                     1_GWF-(3,7,10)
         70          5         10  1.46341600E-03                      1_GWF-(3,9,6)     -0.92722030                     1_GWF-(3,8,10)
         71          5         11 -6.27086807E-04                      1_GWF-(1,9,6)     -0.34236378                      1_GWF-(3,6,9)
         72          5         12 -2.35228327E-04                      1_GWF-(3,7,7)      0.18427009                      1_GWF-(3,4,7)
         73          5         13  1.14098236E-04                      1_GWF-(1,6,7)  8.25403976E-02                      1_GWF-(3,8,7)
         74          5         14 -7.15819082E-05                    1_GWF-(2,10,10)  5.00963648E-02                      1_GWF-(3,6,7)
         75          5         15  2.83265839E-05                      1_GWF-(3,9,8)  2.25273849E-02                      1_GWF-(3,4,7)
         76          5         16 -4.75003660E-06                      1_GWF-(1,9,8)  1.06323874E-02                      1_GWF-(3,8,7)
         77          5         17  2.17818982E-06                      1_GWF-(3,6,4)  4.50926006E-03                      1_GWF-(3,6,7)
         78          6          1      -1.1633604                     1_GWF-(2,4,10)       159.20906                    1_GWF-(3,10,10)
         79          6          2      0.44836201                      1_GWF-(3,2,8)       113.57428                      1_GWF-(3,3,9)
         80          6          3      0.18826268                      1_GWF-(2,7,7)       99.946829                     1_GWF-(3,2,10)
         81          6          4      0.11382639                     1_GWF-(1,10,6)       50.430844                     1_GWF-(3,1,10)
         82          6          5  6.61440010E-02                     1_GWF-(2,9,10)      -28.441125                     1_GWF-(2,2,10)
         83          6          6 -2.54346217E-02                      1_GWF-(3,7,8)       13.510063                      1_GWF-(3,2,9)
         84          6          7  9.47945750E-03                      1_GWF-(3,4,7)       8.5984190                    1_GWF-(2,10,10)
         85          6          8  3.99169575E-03                      1_GWF-(3,3,8)       5.4333124                    1_GWF-(2,10,10)
         86          6          9  2.48626164E-03                      1_GWF-(3,5,7)       2.4275277                    1_GWF-(2,10,10)
         87          6         10  1.48043900E-03                      1_GWF-(3,7,6)       1.1377387                    1_GWF-(2,10,10)
         88          6         11 -8.01687333E-04                    1_GWF-(2,10,10)     -0.44826766                    1_GWF-(3,10,10)
         89          6         12 -2.91778283E-04                     1_GWF-(2,7,10)      0.21051033                     1_GWF-(2,3,10)
         90          6         13 -1.91801402E-04                     1_GWF-(2,3,10) -7.40990199E-02                     1_GWF-(3,4,10)
         91          6         14 -4.19526333E-05                     1_GWF-(2,6,10) -2.72565509E-02                     1_GWF-(3,3,10)
         92          6         15  2.20609870E-05                     1_GWF-(3,9,10)  1.51178383E-02                      1_GWF-(3,3,9)
         93          6         16 -8.00044415E-06                      1_GWF-(3,9,5)  5.98815184E-03                      1_GWF-(3,5,9)
         94          6         17  5.71315390E-06                     1_GWF-(3,10,9)  2.74245840E-03                     1_GWF-(3,3,10)
         95          7          1     -0.10987918                     1_GWF-(3,1,10)      -46.723068                      1_GWF-(2,1,9)
         96          7          2 -9.64995083E-02                     1_GWF-(3,9,10)       39.271060                     1_GWF-(3,2,10)
         97          7          3 -4.65955148E-02                     1_GWF-(3,10,8)      -27.936368                      1_GWF-(2,2,9)
         98          7          4 -1.24332016E-02                     1_GWF-(3,10,5)      -19.216745                     1_GWF-(2,10,9)
         99          7          5 -7.89100366E-03                      1_GWF-(1,4,9)      -9.0311317                     1_GWF-(2,10,9)
        100          7          6  2.97116911E-03                      1_GWF-(1,3,8)       4.8970506                     1_GWF-(3,3,10)
        101          7          7 -2.08355659E-03                      1_GWF-(1,5,9)       3.6530954                     1_GWF-(3,2,10)
        102          7          8 -9.87337571E-04                     1_GWF-(3,10,8)      -1.3130177                     1_GWF-(2,3,10)
        103          7          9  5.89485512E-04                     1_GWF-(2,3,10)     -0.51320175                      1_GWF-(2,5,9)
        104          7         10  2.40559698E-04                     1_GWF-(1,10,7)     -0.23698912                      1_GWF-(2,9,9)
        105          7         11  1.48924004E-04                     1_GWF-(2,9,10)     -0.10568730                     1_GWF-(2,10,9)
        106          7         12 -3.92828346E-05                      1_GWF-(3,5,5)  4.22523507E-02                     1_GWF-(3,9,10)
        107          7         13 -1.50448730E-05                     1_GWF-(3,10,6)  1.06113180E-02                     1_GWF-(3,6,10)
        108          7         14 -8.09777795E-06                     1_GWF-(3,6,10) -5.05730692E-03                      1_GWF-(2,3,9)
        109          7         15  2.26573406E-06                      1_GWF-(1,6,7) -1.90700487E-03                      1_GWF-(2,4,9)
        110          8          1  4.96146360E-02                     1_GWF-(2,7,10)      -6.8927858                     1_GWF-(2,1,10)
        111          8          2  1.71357423E-02                     1_GWF-(3,1,10)      -5.5556256                     1_GWF-(3,10,5)
        112          8          3 -7.08611417E-03                      1_GWF-(1,9,9)      -5.2689688                      1_GWF-(3,2,9)
        113          8          4 -5.47313128E-03                     1_GWF-(1,10,6)      -2.4722890                      1_GWF-(3,1,9)
        114          8          5 -2.98507429E-03                    1_GWF-(3,10,10)       1.3384585                    1_GWF-(3,10,10)
        115          8          6 -1.12603199E-03                      1_GWF-(1,2,9)     -0.86202515                    1_GWF-(2,10,10)
        116          8          7 -3.60098085E-04                      1_GWF-(3,8,9)     -0.58836144                    1_GWF-(2,10,10)
        117          8          8 -2.60337290E-04                     1_GWF-(3,2,10)      0.35053408                    1_GWF-(3,10,10)
        118          8          9  6.61133412E-05                      1_GWF-(3,3,7)      0.15114183                    1_GWF-(3,10,10)
        119          8         10  6.58373595E-05                     1_GWF-(2,2,10) -7.06532760E-02                    1_GWF-(2,10,10)
        120          8         11  3.92334319E-05                     1_GWF-(1,10,8)  2.53767817E-02                    1_GWF-(3,10,10)
        121          8         12 -7.64919484E-06                      1_GWF-(3,5,6) -1.19042008E-02                    1_GWF-(2,10,10)
        122          8         13 -3.04710465E-06                     1_GWF-(3,1,10)  5.49970216E-03                    1_GWF-(3,10,10)
        123          8         14 -1.64577008E-06                     1_GWF-(3,4,10)  1.66823887E-03                    1_GWF-(3,10,10)
 --------------------------------------------------------------------------------------------------------------------------------------


1
  HEAD IN LAYER   1 AT END OF TIME STEP   1 IN STRESS PERIOD    1
  ---------------------------------------------------------------------------

                1               2               3               4               5               6               7               8               9              10
 ................................................................................................................................................................
   1      100.000         94.9664         89.7462         84.3215         78.6653         72.7441         66.5135         59.9104         52.7876       -1.000000E+30
   2      100.000         94.9664         89.7462         84.3215         78.6653         72.7441         66.5135         59.9104         52.7876       -1.000000E+30
   3      100.000         94.9664         89.7462         84.3215         78.6653         72.7441         66.5135         59.9104         52.7876       -1.000000E+30
   4      100.000         94.9664         89.7462         84.3215         78.6653         72.7441         66.5135         59.9104         52.7876       -1.000000E+30
   5      100.000         94.9664         89.7462         84.3215         78.6653         72.7441         66.5135         59.9104         52.7876       -1.000000E+30
   6      100.000         94.9664         89.7462         84.3215         78.6653         72.7441         66.5135         59.9104         52.7876       -1.000000E+30
   7      100.000         94.9664         89.7462         84.3215         78.6653         72.7441         66.5135         59.9104         52.7876       -1.000000E+30
   8      100.000         94.9664         89.7462         84.3215         78.6653         72.7441         66.5135         59.9104         52.7876       -1.000000E+30
   9      100.000         94.9664         89.7462         84.3215         78.6653         72.7441         66.5135         59.9104         52.7876       -1.000000E+30
  10      100.000         94.9664         89.7462         84.3215         78.6653         72.7441         66.5135         59.9104         52.7876       -1.000000E+30
1
  HEAD IN LAYER   2 AT END OF TIME STEP   1 IN STRESS PERIOD    1
  ---------------------------------------------------------------------------

                1               2               3               4               5               6               7               8               9              10
 ................................................................................................................................................................
   1      100.000         94.9609         89.7401         84.3145         78.6574         72.7348         66.5022         59.8951         52.7784         45.1600    
   2      100.000         94.9609         89.7401         84.3145         78.6574         72.7348         66.5022         59.8951         52.7784         45.1600    
   3      100.000         94.9609         89.7401         84.3145         78.6574         72.7348         66.5022         59.8951         52.7784         45.1600    
   4      100.000         94.9609         89.7401         84.3145         78.6574         72.7348         66.5022         59.8951         52.7784         45.1600    
   5      100.000         94.9609         89.7401         84.3145         78.6574         72.7348         66.5022         59.8951         52.7784         45.1600    
   6      100.000         94.9609         89.7401         84.3145         78.6574         72.7348         66.5022         59.8951         52.7784         45.1600    
   7      100.000         94.9609         89.7401         84.3145         78.6574         72.7348         66.5022         59.8951         52.7784         45.1600    
   8      100.000         94.9609         89.7401         84.3145         78.6574         72.7348         66.5022         59.8951         52.7784         45.1600    
   9      100.000         94.9609         89.7401         84.3145         78.6574         72.7348         66.5022         59.8951         52.7784         45.1600    
  10      100.000         94.9609         89.7401         84.3145         78.6574         72.7348         66.5022         59.8951         52.7784         45.1600    
1
  HEAD IN LAYER   3 AT END OF TIME STEP   1 IN STRESS PERIOD    1
  ---------------------------------------------------------------------------

                1               2               3               4               5               6               7               8               9              10
 ................................................................................................................................................................
   1      100.000         94.9591         89.7380         84.3122         78.6547         72.7317         66.4985         59.8900         52.7733         45.1543    
   2      100.000         94.9591         89.7380         84.3122         78.6547         72.7317         66.4985         59.8900         52.7733         45.1543    
   3      100.000         94.9591         89.7380         84.3122         78.6547         72.7317         66.4985         59.8900         52.7733         45.1543    
   4      100.000         94.9591         89.7380         84.3122         78.6547         72.7317         66.4985         59.8900         52.7733         45.1543    
   5      100.000         94.9591         89.7380         84.3122         78.6547         72.7317         66.4985         59.8900         52.7733         45.1543    
   6      100.000         94.9591         89.7380         84.3122         78.6547         72.7317         66.4985         59.8900         52.7733         45.1543    
   7      100.000         94.9591         89.7380         84.3122         78.6547         72.7317         66.4985         59.8900         52.7733         45.1543    
   8      100.000         94.9591         89.7380         84.3122         78.6547         72.7317         66.4985         59.8900         52.7733         45.1543    
   9      100.000         94.9591         89.7380         84.3122         78.6547         72.7317         66.4985         59.8900         52.7733         45.1543    
  10      100.000         94.9591         89.7380         84.3122         78.6547         72.7317         66.4985         59.8900         52.7733         45.1543    

 HEAD WILL BE SAVED ON UNIT 1021 AT END OF TIME STEP    1, STRESS PERIOD    1


  VOLUME BUDGET FOR ENTIRE MODEL AT END OF TIME STEP    1, STRESS PERIOD   1
  ---------------------------------------------------------------------------------------------------

     CUMULATIVE VOLUME      L**3       RATES FOR THIS TIME STEP      L**3/T          PACKAGE NAME    
     ------------------                 ------------------------                     ----------------

           IN:                                      IN:
           ---                                      ---
                 CHD =       74232.8276                   CHD =       74232.8276     CHD1                             
        FLOW-JA-FACE =           0.0000          FLOW-JA-FACE =           0.0000     GWF-GWF_1                        

            TOTAL IN =       74232.8276              TOTAL IN =       74232.8276

          OUT:                                     OUT:
          ----                                     ----
                 CHD =           0.0000                   CHD =           0.0000     CHD1                             
        FLOW-JA-FACE =       74232.8262          FLOW-JA-FACE =       74232.8262     GWF-GWF_1                        

           TOTAL OUT =       74232.8262             TOTAL OUT =       74232.8262

            IN - OUT =       1.4255E-03              IN - OUT =       1.4255E-03

 PERCENT DISCREPANCY =           0.00     PERCENT DISCREPANCY =           0.00




         TIME SUMMARY AT END OF TIME STEP    1 IN STRESS PERIOD    1
                    SECONDS     MINUTES      HOURS       DAYS        YEARS
                    -----------------------------------------------------------
   TIME STEP LENGTH  86400.      1440.0      24.000      1.0000     2.73785E-03
 STRESS PERIOD TIME  86400.      1440.0      24.000      1.0000     2.73785E-03
         TOTAL TIME  86400.      1440.0      24.000      1.0000     2.73785E-03


end timestep


start timestep kper="2" kstp="1" mode="normal"


 END OF FILE DETECTED IN OUTPUT CONTROL.
 CURRENT OUTPUT CONTROL SETTINGS WILL BE 
 REPEATED UNTIL THE END OF THE SIMULATION.

 OUTPUT CONTROL FOR STRESS PERIOD 2 IS REPEATED USING SETTINGS FROM A PREVIOUS STRESS PERIOD.
 ---------------------------------------------------
  CHD NO.    LAYER    ROW     COL         HEAD      
 ---------------------------------------------------
     1         2       1       1     25.0000000     
     2         2       2       1     25.0000000     
     3         2       3       1     25.0000000     
     4         2       4       1     25.0000000     
     5         2       5       1     25.0000000     
     6         2       6       1     25.0000000     
     7         2       7       1     25.0000000     
     8         2       8       1     25.0000000     
     9         2       9       1     25.0000000     
     10        2      10       1     25.0000000     
     11        3       1       1     25.0000000     
     12        3       2       1     25.0000000     
     13        3       3       1     25.0000000     
     14        3       4       1     25.0000000     
     15        3       5       1     25.0000000     
     16        3       6       1     25.0000000     
     17        3       7       1     25.0000000     
     18        3       8       1     25.0000000     
     19        3       9       1     25.0000000     
     20        3      10       1     25.0000000     
 ---------------------------------------------------



 CELL CONVERSIONS FOR ITER.=2  STEP=1  PERIOD=2   (NODE or LRC)
     DRY             (1,1,1) DRY             (1,1,2) DRY             (1,1,3) DRY             (1,1,4) DRY             (1,1,5)
     DRY             (1,1,6) DRY             (1,1,7) DRY             (1,1,8) DRY             (1,1,9) DRY             (1,2,1)
     DRY             (1,2,2) DRY             (1,2,3) DRY             (1,2,4) DRY             (1,2,5) DRY             (1,2,6)
     DRY             (1,2,7) DRY             (1,2,8) DRY             (1,2,9) DRY             (1,3,1) DRY             (1,3,2)
     DRY             (1,3,3) DRY             (1,3,4) DRY             (1,3,5) DRY             (1,3,6) DRY             (1,3,7)
     DRY             (1,3,8) DRY             (1,3,9) DRY             (1,4,1) DRY             (1,4,2) DRY             (1,4,3)
     DRY             (1,4,4) DRY             (1,4,5) DRY             (1,4,6) DRY             (1,4,7) DRY             (1,4,8)
     DRY             (1,4,9) DRY             (1,5,1) DRY             (1,5,2) DRY             (1,5,3) DRY             (1,5,4)
     DRY             (1,5,5) DRY             (1,5,6) DRY             (1,5,7) DRY             (1,5,8) DRY             (1,5,9)
     DRY             (1,6,1) DRY             (1,6,2) DRY             (1,6,3) DRY             (1,6,4) DRY             (1,6,5)
     DRY             (1,6,6) DRY             (1,6,7) DRY             (1,6,8) DRY             (1,6,9) DRY             (1,7,1)
     DRY             (1,7,2) DRY             (1,7,3) DRY             (1,7,4) DRY             (1,7,5) DRY             (1,7,6)
     DRY             (1,7,7) DRY             (1,7,8) DRY             (1,7,9) DRY             (1,8,1) DRY             (1,8,2)
     DRY             (1,8,3) DRY             (1,8,4) DRY             (1,8,5) DRY             (1,8,6) DRY             (1,8,7)
     DRY             (1,8,8) DRY             (1,8,9) DRY             (1,9,1) DRY             (1,9,2) DRY             (1,9,3)
     DRY             (1,9,4) DRY             (1,9,5) DRY             (1,9,6) DRY             (1,9,7) DRY             (1,9,8)
     DRY             (1,9,9) DRY            (1,10,1) DRY            (1,10,2) DRY            (1,10,3) DRY            (1,10,4)
     DRY            (1,10,5) DRY            (1,10,6) DRY            (1,10,7) DRY            (1,10,8) DRY            (1,10,9)
     DRY            (2,1,10) DRY            (2,2,10) DRY            (2,3,10) DRY            (2,4,10) DRY            (2,5,10)
     DRY            (2,6,10) DRY            (2,7,10) DRY            (2,8,10) DRY            (2,9,10) DRY           (2,10,10)

 CELL CONVERSIONS FOR ITER.=3  STEP=1  PERIOD=2   (NODE or LRC)
     DRY             (2,1,9) DRY             (2,2,9) DRY             (2,3,9) DRY             (2,4,9) DRY             (2,5,9)
     DRY             (2,6,9) DRY             (2,7,9) DRY             (2,8,9) DRY             (2,9,9) DRY            (2,10,9)

 CELL CONVERSIONS FOR ITER.=4  STEP=1  PERIOD=2   (NODE or LRC)
     WET             (2,1,9) WET             (2,2,9) WET             (2,3,9) WET             (2,4,9) WET             (2,5,9)
     WET             (2,6,9) WET             (2,7,9) WET             (2,8,9) WET             (2,9,9) WET            (2,10,9)

 SLN_1 INNER ITERATION SUMMARY
 --------------------------------------------------------------------------------------------------------------------------------------
      TOTAL      OUTER      INNER                                                            MAXIMUM                                   
  ITERATION  ITERATION  ITERATION  MAXIMUM CHANGE      MAXIMUM CHANGE MODEL-(CELLID)        RESIDUAL    MAXIMUM RESIDUAL MODEL-(CELLID)
 --------------------------------------------------------------------------------------------------------------------------------------
          1          1          1      -75.225828                     1_GWF-(2,10,2)       7380.9633                     1_GWF-(1,10,1)
          2          1          2      -23.367667                      1_GWF-(3,1,9)      -4100.5615                      1_GWF-(3,2,9)
          3          1          3      -10.819389                     1_GWF-(3,1,10)      -2921.7451                      1_GWF-(3,1,9)
          4          1          4      -4.1021589                      1_GWF-(1,3,9)       1915.9715                     1_GWF-(2,2,10)
          5          1          5      -2.0929794                     1_GWF-(2,8,10)      -882.68531                     1_GWF-(3,3,10)
          6          1          6     -0.72718810                     1_GWF-(1,10,9)      -311.90606                     1_GWF-(3,2,10)
          7          1          7      0.37975548                     1_GWF-(3,2,10)      -118.84447                     1_GWF-(3,5,10)
          8          1          8      0.19611912                      1_GWF-(3,4,8)       61.810998                      1_GWF-(3,2,9)
          9          1          9 -9.06558547E-02                      1_GWF-(3,2,6)       34.313674                     1_GWF-(3,2,10)
         10          1         10 -2.11677553E-02                      1_GWF-(3,1,8)      -12.725953                     1_GWF-(2,3,10)
         11          1         11 -1.17724613E-02                      1_GWF-(3,3,8)      -5.1225857                      1_GWF-(3,1,9)
         12          1         12  5.73134409E-03                      1_GWF-(3,1,7)      -2.4778070                     1_GWF-(3,1,10)
         13          1         13 -1.76407990E-03                      1_GWF-(3,8,8)      -1.0023079                      1_GWF-(3,3,9)
         14          1         14  8.36774812E-04                      1_GWF-(2,2,8)     -0.36402529                      1_GWF-(3,1,5)
         15          1         15 -2.95716586E-04                      1_GWF-(3,6,4)     -0.17693353                     1_GWF-(2,2,10)
         16          1         16 -1.23717484E-04                      1_GWF-(3,2,7)  6.32819829E-02                      1_GWF-(3,2,3)
         17          1         17 -4.58054946E-05                      1_GWF-(1,1,9) -2.89119597E-02                      1_GWF-(3,1,9)
         18          1         18 -1.97782846E-05                      1_GWF-(3,1,4) -1.07557194E-02                     1_GWF-(3,1,10)
         19          1         19 -7.24288766E-06                      1_GWF-(2,2,4) -4.55422744E-03                     1_GWF-(3,1,10)
         20          2          1      -6.1551772                     1_GWF-(3,1,10)      -370.81509                      1_GWF-(3,1,6)
         21          2          2      -1.7675469                    1_GWF-(3,10,10)      -251.36176                     1_GWF-(3,1,10)
         22          2          3     -0.64327742                     1_GWF-(3,10,6)       154.18557                     1_GWF-(3,10,3)
         23          2          4     -0.19329884                     1_GWF-(3,8,10)       84.500162                     1_GWF-(3,10,2)
         24          2          5  7.48707228E-02                      1_GWF-(2,2,9)      -30.048819                     1_GWF-(2,10,3)
         25          2          6  2.30810620E-02                     1_GWF-(3,2,10)       15.152793                      1_GWF-(3,9,4)
         26          2          7  1.60820215E-02                      1_GWF-(2,5,9)       5.3140106                      1_GWF-(3,9,3)
         27          2          8 -5.18453437E-03                      1_GWF-(3,2,6)       1.4010442                      1_GWF-(3,8,5)
         28          2          9 -1.42802874E-03                      1_GWF-(3,3,5)      0.64955044                      1_GWF-(3,9,6)
         29          2         10  5.56025571E-04                      1_GWF-(2,8,8)      0.18916042                      1_GWF-(3,9,8)
         30          2         11 -1.55645254E-04                      1_GWF-(3,3,8)  5.76938854E-02                      1_GWF-(3,2,3)
         31          2         12  4.67299807E-05                     1_GWF-(3,8,10) -1.85250022E-02                     1_GWF-(2,10,8)
         32          2         13 -1.41531541E-05                      1_GWF-(2,2,9)  6.47401968E-03                     1_GWF-(3,10,8)
         33          3          1       1.3710480                     1_GWF-(3,6,10)      -119.30992                     1_GWF-(3,1,10)
         34          3          2      0.46521503                     1_GWF-(2,10,7)      -72.984737                     1_GWF-(3,10,4)
         35          3          3      0.17056478                     1_GWF-(3,10,5)      -52.581703                     1_GWF-(3,10,2)
         36          3          4  6.03411902E-02                      1_GWF-(3,2,9)      -20.262731                     1_GWF-(3,10,2)
         37          3          5 -2.87844878E-02                    1_GWF-(3,10,10)      -6.9845246                      1_GWF-(3,9,4)
         38          3          6 -9.96014159E-03                     1_GWF-(3,3,10)      -3.7619816                      1_GWF-(3,9,4)
         39          3          7 -4.84778968E-03                    1_GWF-(3,10,10)       1.0921425                      1_GWF-(3,9,5)
         40          3          8 -1.13640504E-03                     1_GWF-(3,2,10)     -0.25553310                      1_GWF-(3,2,2)
         41          3          9 -2.57170047E-04                      1_GWF-(3,7,6)     -0.12003435                      1_GWF-(3,2,2)
         42          3         10 -9.94878423E-05                     1_GWF-(3,2,10) -3.16559186E-02                     1_GWF-(2,10,7)
         43          3         11  2.82888108E-05                      1_GWF-(3,1,7)  1.44221554E-02                     1_GWF-(3,10,7)
         44          3         12  1.32446215E-05                      1_GWF-(3,3,5) -4.99820356E-03                     1_GWF-(2,10,7)
         45          4          1      0.38889968                     1_GWF-(3,1,10)       404.19751                      1_GWF-(3,1,9)
         46          4          2     -0.28800262                     1_GWF-(3,1,10)      -66.863094                      1_GWF-(2,4,9)
         47          4          3  7.14462413E-02                     1_GWF-(3,10,7)       15.410262                      1_GWF-(3,2,8)
         48          4          4  1.55626749E-02                     1_GWF-(2,10,4)       5.4184871                      1_GWF-(3,2,9)
         49          4          5  5.36415431E-03                      1_GWF-(2,4,9)       1.6590011                      1_GWF-(3,2,9)
         50          4          6 -2.58362531E-03                     1_GWF-(3,5,10)     -0.99536033                      1_GWF-(3,9,5)
         51          4          7  6.33746624E-04                      1_GWF-(2,1,7)     -0.30620273                      1_GWF-(3,9,4)
         52          4          8 -2.89591583E-04                      1_GWF-(3,7,9) -8.39350480E-02                     1_GWF-(3,10,7)
         53          4          9  7.91533148E-05                      1_GWF-(3,2,7) -3.85108016E-02                      1_GWF-(3,8,5)
         54          4         10 -5.57708053E-05                      1_GWF-(3,9,9) -1.00349655E-02                      1_GWF-(3,9,8)
         55          4         11  1.28740182E-05                      1_GWF-(2,2,9)  3.51547329E-03                     1_GWF-(2,10,7)
         56          5          1 -7.82015335E-02                      1_GWF-(2,3,8)      -7.7426903                     1_GWF-(2,10,9)
         57          5          2 -2.86996806E-02                     1_GWF-(2,10,8)       6.7124979                      1_GWF-(3,3,9)
         58          5          3 -9.85304022E-03                     1_GWF-(3,10,5)       4.7865147                      1_GWF-(3,2,9)
         59          5          4 -3.78486216E-03                      1_GWF-(3,8,9)       1.4734455                      1_GWF-(3,9,9)
         60          5          5 -1.79985921E-03                     1_GWF-(3,2,10)     -0.52271267                      1_GWF-(3,2,8)
         61          5          6  5.65305564E-04                      1_GWF-(2,2,9)      0.27137346                      1_GWF-(3,9,4)
         62          5          7 -2.17831261E-04                      1_GWF-(3,9,4)  6.90506183E-02                      1_GWF-(3,2,5)
         63          5          8  6.69871640E-05                     1_GWF-(3,2,10) -1.63710155E-02                      1_GWF-(3,3,8)
         64          5          9  1.58335827E-05                      1_GWF-(2,3,8)  6.94023581E-03                      1_GWF-(3,2,2)
 --------------------------------------------------------------------------------------------------------------------------------------


1
  HEAD IN LAYER   1 AT END OF TIME STEP   1 IN STRESS PERIOD    2
  ---------------------------------------------------------------------------

                1               2               3               4               5               6               7               8               9              10
 ................................................................................................................................................................
   1    -1.000000E+30   -1.000000E+30   -1.000000E+30   -1.000000E+30   -1.000000E+30   -1.000000E+30   -1.000000E+30   -1.000000E+30   -1.000000E+30   -1.000000E+30
   2    -1.000000E+30   -1.000000E+30   -1.000000E+30   -1.000000E+30   -1.000000E+30   -1.000000E+30   -1.000000E+30   -1.000000E+30   -1.000000E+30   -1.000000E+30
   3    -1.000000E+30   -1.000000E+30   -1.000000E+30   -1.000000E+30   -1.000000E+30   -1.000000E+30   -1.000000E+30   -1.000000E+30   -1.000000E+30   -1.000000E+30
   4    -1.000000E+30   -1.000000E+30   -1.000000E+30   -1.000000E+30   -1.000000E+30   -1.000000E+30   -1.000000E+30   -1.000000E+30   -1.000000E+30   -1.000000E+30
   5    -1.000000E+30   -1.000000E+30   -1.000000E+30   -1.000000E+30   -1.000000E+30   -1.000000E+30   -1.000000E+30   -1.000000E+30   -1.000000E+30   -1.000000E+30
   6    -1.000000E+30   -1.000000E+30   -1.000000E+30   -1.000000E+30   -1.000000E+30   -1.000000E+30   -1.000000E+30   -1.000000E+30   -1.000000E+30   -1.000000E+30
   7    -1.000000E+30   -1.000000E+30   -1.000000E+30   -1.000000E+30   -1.000000E+30   -1.000000E+30   -1.000000E+30   -1.000000E+30   -1.000000E+30   -1.000000E+30
   8    -1.000000E+30   -1.000000E+30   -1.000000E+30   -1.000000E+30   -1.000000E+30   -1.000000E+30   -1.000000E+30   -1.000000E+30   -1.000000E+30   -1.000000E+30
   9    -1.000000E+30   -1.000000E+30   -1.000000E+30   -1.000000E+30   -1.000000E+30   -1.000000E+30   -1.000000E+30   -1.000000E+30   -1.000000E+30   -1.000000E+30
  10    -1.000000E+30   -1.000000E+30   -1.000000E+30   -1.000000E+30   -1.000000E+30   -1.000000E+30   -1.000000E+30   -1.000000E+30   -1.000000E+30   -1.000000E+30
1
  HEAD IN LAYER   2 AT END OF TIME STEP   1 IN STRESS PERIOD    2
  ---------------------------------------------------------------------------

                1               2               3               4               5               6               7               8               9              10
 ................................................................................................................................................................
   1      25.0000         22.3728         19.6456         16.8066         13.8404         10.7273         7.44061         3.93944        9.093699E-02   -1.000000E+30
   2      25.0000         22.3728         19.6456         16.8066         13.8404         10.7273         7.44060         3.93944        9.093541E-02   -1.000000E+30
   3      25.0000         22.3728         19.6456         16.8066         13.8404         10.7273         7.44060         3.93944        9.093260E-02   -1.000000E+30
   4      25.0000         22.3728         19.6456         16.8066         13.8404         10.7273         7.44060         3.93944        9.093648E-02   -1.000000E+30
   5      25.0000         22.3728         19.6456         16.8066         13.8404         10.7273         7.44060         3.93943        9.093416E-02   -1.000000E+30
   6      25.0000         22.3728         19.6456         16.8066         13.8404         10.7273         7.44060         3.93944        9.093215E-02   -1.000000E+30
   7      25.0000         22.3728         19.6456         16.8066         13.8404         10.7273         7.44060         3.93944        9.093463E-02   -1.000000E+30
   8      25.0000         22.3728         19.6456         16.8066         13.8404         10.7273         7.44060         3.93944        9.093769E-02   -1.000000E+30
   9      25.0000         22.3728         19.6456         16.8066         13.8404         10.7273         7.44060         3.93944        9.093885E-02   -1.000000E+30
  10      25.0000         22.3728         19.6456         16.8066         13.8404         10.7273         7.44060         3.93944        9.093684E-02   -1.000000E+30
1
  HEAD IN LAYER   3 AT END OF TIME STEP   1 IN STRESS PERIOD    2
  ---------------------------------------------------------------------------

                1               2               3               4               5               6               7               8               9              10
 ................................................................................................................................................................
   1      25.0000         22.3718         19.6445         16.8053         13.8390         10.7256         7.43845         3.93601        9.069752E-02    -3.94038    
   2      25.0000         22.3718         19.6445         16.8053         13.8390         10.7256         7.43845         3.93601        9.069595E-02    -3.94038    
   3      25.0000         22.3718         19.6445         16.8053         13.8390         10.7256         7.43845         3.93601        9.069314E-02    -3.94038    
   4      25.0000         22.3718         19.6445         16.8053         13.8390         10.7256         7.43844         3.93601        9.069702E-02    -3.94038    
   5      25.0000         22.3718         19.6445         16.8053         13.8390         10.7256         7.43844         3.93601        9.069469E-02    -3.94038    
   6      25.0000         22.3718         19.6445         16.8053         13.8390         10.7256         7.43845         3.93601        9.069268E-02    -3.94038    
   7      25.0000         22.3718         19.6445         16.8053         13.8390         10.7256         7.43845         3.93601        9.069515E-02    -3.94038    
   8      25.0000         22.3718         19.6445         16.8053         13.8390         10.7256         7.43845         3.93601        9.069822E-02    -3.94038    
   9      25.0000         22.3718         19.6445         16.8053         13.8390         10.7256         7.43845         3.93601        9.069938E-02    -3.94037    
  10      25.0000         22.3718         19.6445         16.8053         13.8390         10.7256         7.43845         3.93601        9.069736E-02    -3.94038    

 HEAD WILL BE SAVED ON UNIT 1021 AT END OF TIME STEP    1, STRESS PERIOD    2


  VOLUME BUDGET FOR ENTIRE MODEL AT END OF TIME STEP    1, STRESS PERIOD   2
  ---------------------------------------------------------------------------------------------------

     CUMULATIVE VOLUME      L**3       RATES FOR THIS TIME STEP      L**3/T          PACKAGE NAME    
     ------------------                 ------------------------                     ----------------

           IN:                                      IN:
           ---                                      ---
                 CHD =       93579.1273                   CHD =       19346.2996     CHD1                             
        FLOW-JA-FACE =           0.0000          FLOW-JA-FACE =           0.0000     GWF-GWF_1                        

            TOTAL IN =       93579.1273              TOTAL IN =       19346.2996

          OUT:                                     OUT:
          ----                                     ----
                 CHD =           0.0000                   CHD =           0.0000     CHD1                             
        FLOW-JA-FACE =       93579.1392          FLOW-JA-FACE =       19346.3130     GWF-GWF_1                        

           TOTAL OUT =       93579.1392             TOTAL OUT =       19346.3130

            IN - OUT =      -1.1974E-02              IN - OUT =      -1.3400E-02

 PERCENT DISCREPANCY =          -0.00     PERCENT DISCREPANCY =          -0.00




         TIME SUMMARY AT END OF TIME STEP    1 IN STRESS PERIOD    2
                    SECONDS     MINUTES      HOURS       DAYS        YEARS
                    -----------------------------------------------------------
   TIME STEP LENGTH  86400.      1440.0      24.000      1.0000     2.73785E-03
 STRESS PERIOD TIME  86400.      1440.0      24.000      1.0000     2.73785E-03
         TOTAL TIME 1.72800E+05  2880.0      48.000      2.0000     5.47570E-03


end timestep

