                             MODFLOW 6 PROFESSIONAL
                U.S. GEOLOGICAL SURVEY MODULAR HYDROLOGIC MODEL
                  VERSION 6.5.0.dev0 (preliminary) 07/13/2023
                               ***DEVELOP MODE***

        MODFLOW 6 compiled Oct 30 2023 08:23:02 with GCC version 11.3.0

This software is preliminary or provisional and is subject to 
revision. It is being provided to meet the need for timely best 
science. The software has not received final approval by the U.S. 
Geological Survey (USGS). No warranty, expressed or implied, is made 
by the USGS or the U.S. Government as to the functionality of the 
software and related material nor shall the fact of release 
constitute any such warranty. The software is provided on the 
condition that neither the USGS nor the U.S. Government shall be held 
liable for any damages resulting from the authorized or unauthorized 
use of the software.


As a work of the United States Government, this USGS product is 
in the public domain within the United States. You can copy, 
modify, distribute, and perform the work, even for commercial 
purposes, all without asking permission. Additionally, USGS 
waives copyright and related rights in the work worldwide 
through CC0 1.0 Universal Public Domain Dedication 
(https://creativecommons.org/publicdomain/zero/1.0/).

The following GNU Lesser General Public License (LGPL) libraries
are used in this USGS product:

    SPARSKIT version 2.0
      ilut, luson, and qsplit 
      (https://www-users.cse.umn.edu/~saad/software/SPARSKIT/)

    RCM - Reverse Cuthill McKee Ordering
      (https://people.math.sc.edu/Burkardt/f_src/rcm/rcm.html)

    BLAS - Basic Linear Algebra Subprograms Level 1
      (https://people.math.sc.edu/Burkardt/f_src/blas1_d/blas1_d.html)

    SPARSEKIT - Sparse Matrix Utility Package
      amux, dperm, dvperm, rperm, and cperm
      (https://people.sc.fsu.edu/~jburkardt/f77_src/sparsekit/sparsekit.html)

The following BSD-3 License libraries are used in this USGS product:

    Modern Fortran DAG Library
      Copyright (c) 2018, Jacob Williams
      All rights reserved.
      (https://github.com/jacobwilliams/daglib)

The following 2-clause BSD License library is used in this
USGS product:

    PETSc, the Portable, Extensible Toolkit for Scientific
    Computation Library
      Copyright (c) 1991-2021, UChicago Argonne, LLC
      and the PETSc Development Team All rights reserved.
      (https://petsc.org/release/)

MODFLOW 6 compiler options: -cpp -I src/libmf6core.a.p -I src -I ../src -I
src/libmf6_external.a.p -I
/home/mreno/.clone/external/petsc/arch-linux-c-debug/include -I
/home/mreno/.clone/external/petsc/include -I
/home/mreno/.clone/external/petsc/arch-linux-c-debug/lib -I
/home/mreno/miniconda3/envs/modflow6/include -I -fdiagnostics-color=always
-imultiarch x86_64-linux-gnu -D _FILE_OFFSET_BITS=64 -D __linux__ -D
__WITH_PETSC__ -D __WITH_MPI__ -D __WITH_NETCDF__ -mtune=generic
-march=x86-64 -g -O2 -Wall -Wpedantic -Wcharacter-truncation
-Wno-unused-dummy-argument -Wno-intrinsic-shadow -Wno-maybe-uninitialized
-Wno-uninitialized -std=f2008 -fall-intrinsics -fbacktrace -fcheck=all
-ffpe-trap=overflow,zero,invalid -ffpe-summary=overflow
-ffpe-trap=overflow,zero,invalid -fPIC -J src/libmf6core.a.p
-fpre-include=/usr/include/finclude/math-vector-fortran.h

System command used to initiate simulation:
/home/mreno/.clone/usgs/w/netcdf/2/modflow6/bin/mf6

MODFLOW was compiled using uniform precision.

Real Variables
  KIND: 8
  TINY (smallest non-zero value):    2.225074-308
  HUGE (largest value):    1.797693+308
  PRECISION: 15
  SIZE IN BITS: 64

Integer Variables
  KIND: 4
  HUGE (largest value): 2147483647
  SIZE IN BITS: 32

Long Integer Variables
  KIND: 8
  HUGE (largest value): 9223372036854775807
  SIZE IN BITS: 64

Logical Variables
  KIND: 4
  SIZE IN BITS: 32


 OPENED mfsim.nam
 FILE TYPE:NAM6      UNIT 1001   STATUS:OLD                 
 FORMAT:FORMATTED              ACCESS:SEQUENTIAL          
 ACTION:READ                

 # File generated by Flopy version 3.5.0.dev0 on 10/30/2023 at 09:20:40.

 OPENED gwf0.nam
 FILE TYPE:GWF6      UNIT 1002   STATUS:OLD                 
 FORMAT:FORMATTED              ACCESS:SEQUENTIAL          
 ACTION:READ                

 # File generated by Flopy version 3.5.0.dev0 on 10/30/2023 at 09:20:40.

 OPENED gwf0.dis
 FILE TYPE:DIS6      UNIT 1003   STATUS:OLD                 
 FORMAT:FORMATTED              ACCESS:SEQUENTIAL          
 ACTION:READ                

 # File generated by Flopy version 3.5.0.dev0 on 10/30/2023 at 09:20:40.

 OPENED gwf0.npf
 FILE TYPE:NPF6      UNIT 1004   STATUS:OLD                 
 FORMAT:FORMATTED              ACCESS:SEQUENTIAL          
 ACTION:READ                

 # File generated by Flopy version 3.5.0.dev0 on 10/30/2023 at 09:20:40.

 OPENED gwf0.ic
 FILE TYPE:IC6       UNIT 1005   STATUS:OLD                 
 FORMAT:FORMATTED              ACCESS:SEQUENTIAL          
 ACTION:READ                


 OPENED gwf0.oc
 FILE TYPE:OC6       UNIT 1006   STATUS:OLD                 
 FORMAT:FORMATTED              ACCESS:SEQUENTIAL          
 ACTION:READ                


 OPENED gwf0.chd1.chd
 FILE TYPE:CHD6      UNIT 1007   STATUS:OLD                 
 FORMAT:FORMATTED              ACCESS:SEQUENTIAL          
 ACTION:READ                

 # File generated by Flopy version 3.5.0.dev0 on 10/30/2023 at 09:20:40.

 OPENED gwf1.nam
 FILE TYPE:GWF6      UNIT 1008   STATUS:OLD                 
 FORMAT:FORMATTED              ACCESS:SEQUENTIAL          
 ACTION:READ                

 # File generated by Flopy version 3.5.0.dev0 on 10/30/2023 at 09:20:40.

 OPENED gwf1.dis
 FILE TYPE:DIS6      UNIT 1009   STATUS:OLD                 
 FORMAT:FORMATTED              ACCESS:SEQUENTIAL          
 ACTION:READ                

 # File generated by Flopy version 3.5.0.dev0 on 10/30/2023 at 09:20:40.

 OPENED gwf1.npf
 FILE TYPE:NPF6      UNIT 1010   STATUS:OLD                 
 FORMAT:FORMATTED              ACCESS:SEQUENTIAL          
 ACTION:READ                

 # File generated by Flopy version 3.5.0.dev0 on 10/30/2023 at 09:20:40.

 OPENED gwf1.ic
 FILE TYPE:IC6       UNIT 1011   STATUS:OLD                 
 FORMAT:FORMATTED              ACCESS:SEQUENTIAL          
 ACTION:READ                


 OPENED gwf1.oc
 FILE TYPE:OC6       UNIT 1012   STATUS:OLD                 
 FORMAT:FORMATTED              ACCESS:SEQUENTIAL          
 ACTION:READ                


 OPENED gwf1.chd2.chd
 FILE TYPE:CHD6      UNIT 1013   STATUS:OLD                 
 FORMAT:FORMATTED              ACCESS:SEQUENTIAL          
 ACTION:READ                

 # File generated by Flopy version 3.5.0.dev0 on 10/30/2023 at 09:20:40.

 READING SIMULATION OPTIONS
    MAXIMUM NUMBER OF ERRORS THAT WILL BE STORED IS 1000
 END OF SIMULATION OPTIONS

 READING SIMULATION TIMING

 OPENED npf02_hrewetd.tdis
 FILE TYPE:TDIS   UNIT 1014   STATUS:OLD                 
 FORMAT:FORMATTED              ACCESS:SEQUENTIAL          
 ACTION:READ                


 TDIS -- TEMPORAL DISCRETIZATION PACKAGE,
 VERSION 1 : 11/13/2014 - INPUT READ FROM UNIT 1014
 # File generated by Flopy version 3.5.0.dev0 on 10/30/2023 at 09:20:40.
 PROCESSING TDIS OPTIONS
    SIMULATION TIME UNIT IS DAYS
 END OF TDIS OPTIONS
 PROCESSING TDIS DIMENSIONS
    2 STRESS PERIOD(S) IN SIMULATION
 END OF TDIS DIMENSIONS
 PROCESSING TDIS PERIODDATA


 STRESS PERIOD     LENGTH       TIME STEPS     MULTIPLIER FOR DELT
 ----------------------------------------------------------------------------
        1         1.000000          1                    1.000
        2         1.000000          1                    1.000
 END OF TDIS PERIODDATA
 END OF SIMULATION TIMING

 READING SIMULATION MODELS
    GWF6 model 1 will be created
    GWF6 model 2 will be created
 END OF SIMULATION MODELS

 READING SIMULATION EXCHANGES
    GWF6-GWF6 exchange 1 will be created to connect model 1 with model 2
 END OF SIMULATION EXCHANGES

 READING SOLUTIONGROUP

 Creating solution: SLN_1           

 OPENED npf02_hrewetd.ims
 FILE TYPE:IMS   UNIT 1017   STATUS:OLD                 
 FORMAT:FORMATTED              ACCESS:SEQUENTIAL          
 ACTION:READ                

 END OF SOLUTIONGROUP

 Creating exchange: GWF-GWF_1       

 OPENED npf02_hrewetd.gwfgwf
 FILE TYPE:GWF-GWF   UNIT 1018   STATUS:OLD                 
 FORMAT:FORMATTED              ACCESS:SEQUENTIAL          
 ACTION:READ                

 # File generated by Flopy version 3.5.0.dev0 on 10/30/2023 at 09:20:40.
 PROCESSING GWF-GWF EXCHANGE OPTIONS
 END OF GWF-GWF EXCHANGE OPTIONS
 PROCESSING EXCHANGE DIMENSIONS
    NEXG = 30
 END OF EXCHANGE DIMENSIONS
 PROCESSING EXCHANGEDATA
 END OF EXCHANGEDATA

PROCESSING MODEL CONNECTIONS
END OF MODEL CONNECTIONS

 IMS -- ITERATIVE MODEL SOLUTION PACKAGE, VERSION 6, 4/28/2017
         INPUT READ FROM UNIT 1017
 # File generated by Flopy version 3.5.0.dev0 on 10/30/2023 at 09:20:40.

 PROCESSING IMS OPTIONS

 OPENED npf02_hrewetd.outer.ims.csv
 FILE TYPE:CSV_OUTER_OUTPUT   UNIT 1025   STATUS:REPLACE             
 FORMAT:FORMATTED              ACCESS:SEQUENTIAL          
 ACTION:READWRITE           

    CSV OUTPUT WILL BE SAVED TO FILE: npf02_hrewetd.outer.ims.csv
    OPENED ON UNIT:    1025

 OPENED npf02_hrewetd.inner.ims.csv
 FILE TYPE:CSV_INNER_OUTPUT   UNIT 1026   STATUS:REPLACE             
 FORMAT:FORMATTED              ACCESS:SEQUENTIAL          
 ACTION:READWRITE           

    CSV OUTPUT WILL BE SAVED TO FILE: npf02_hrewetd.inner.ims.csv
    OPENED ON UNIT:    1026
 END OF IMS OPTIONS

 PROCESSING IMS NONLINEAR
 END OF IMS NONLINEAR DATA
 ***UNDER-RELAXATION WILL NOT BE USED***


 PROCESSING LINEAR DATA
 END OF LINEAR DATA
 ***IMS LINEAR SOLVER WILL BE USED***

 IMSLINEAR -- UNSTRUCTURED LINEAR SOLUTION PACKAGE, VERSION 8, 04/28/2017
 A symmetric matrix will be solved

 OUTER ITERATION CONVERGENCE CRITERION    (DVCLOSE) =    0.100000E+00
 MAXIMUM NUMBER OF OUTER ITERATIONS        (MXITER) = 1000
 SOLVER PRINTOUT INDEX                     (IPRIMS) = 2
 NONLINEAR ITERATION METHOD            (NONLINMETH) = 0
 LINEAR SOLUTION METHOD                   (LINMETH) = 1

       SOLUTION BY THE        CONJUGATE-GRADIENT       METHOD
 ------------------------------------------------------------------
 MAXIMUM OF 1000 CALLS OF SOLUTION ROUTINE
 MAXIMUM OF 100 INTERNAL ITERATIONS PER CALL TO SOLUTION ROUTINE
 LINEAR ACCELERATION METHOD            = CG        
 MATRIX PRECONDITIONING TYPE           = MOD. INCOMPLETE LU  
 MATRIX SCALING APPROACH               = NO SCALING          
 MATRIX REORDERING APPROACH            = ORIGINAL ORDERING        
 NUMBER OF ORTHOGONALIZATIONS          = 0
 HEAD CHANGE CRITERION FOR CLOSURE     =    0.10000E+00
 RESIDUAL CHANGE CRITERION FOR CLOSURE =    0.10000E-01
 RESIDUAL CONVERGENCE OPTION           = 0
 RESIDUAL CONVERGENCE NORM             = INFINITY NORM   
 RELAXATION FACTOR                     =    0.10000E+01




    Solving:  Stress period:     1    Time step:     1

1
                            STRESS PERIOD NO. 1, LENGTH =   1.000000    
                            -----------------------------------------------
                            NUMBER OF TIME STEPS = 1
                            MULTIPLIER FOR DELT =     1.000
                            INITIAL TIME STEP SIZE =   1.000000    

 SLN_1 OUTER ITERATION SUMMARY
 ----------------------------------------------------------------------------------------------------------
                                OUTER      INNER                    STEP   MAXIMUM CHANGE MODEL-(CELLID) OR
 OUTER ITERATION STEP       ITERATION  ITERATION  MAXIMUM CHANGE SUCCESS             MODEL-PACKAGE-(NUMBER)
 ----------------------------------------------------------------------------------------------------------
 Model                              1         13       133.82354                             1_GWF-(3,10,2)
 Model                              2         13       92.357882                              1_GWF-(2,7,2)
 Model                              3         16       43.960031                              1_GWF-(1,4,2)
 Model                              4         18       10.083641                              1_GWF-(1,9,8)
 Model                              5         17       4.0564307                              2_GWF-(2,9,4)
 Model                              6         17     -0.94082243                             2_GWF-(2,10,3)
 Model                              7         15     -0.31274127                              2_GWF-(2,4,3)
 Model                              8         14  3.93193171E-02       *                     1_GWF-(2,3,10)
 ----------------------------------------------------------------------------------------------------------


 8 CALLS TO NUMERICAL SOLUTION IN TIME STEP 1 STRESS PERIOD 1
 123 TOTAL ITERATIONS

 SLN_1 INNER ITERATION SUMMARY
 --------------------------------------------------------------------------------------------------------------------------------------
      TOTAL      OUTER      INNER                                                            MAXIMUM                                   
  ITERATION  ITERATION  ITERATION  MAXIMUM CHANGE      MAXIMUM CHANGE MODEL-(CELLID)        RESIDUAL    MAXIMUM RESIDUAL MODEL-(CELLID)
 --------------------------------------------------------------------------------------------------------------------------------------
          1          1          1       131.69092                     1_GWF-(3,10,2)       1480.4690                     2_GWF-(3,10,2)
          2          1          2       30.987299                      1_GWF-(3,1,9)      -811.64285                      2_GWF-(3,1,2)
          3          1          3      -12.122993                     1_GWF-(3,10,7)      -462.47163                      2_GWF-(3,1,4)
          4          1          4      -2.9564173                     1_GWF-(3,10,4)      -147.59510                      2_GWF-(3,1,4)
          5          1          5      0.96698969                     1_GWF-(3,2,10)      -45.401380                      2_GWF-(3,2,2)
          6          1          6      0.32669725                      2_GWF-(3,2,2)       14.469602                      1_GWF-(3,9,5)
          7          1          7      0.11768277                      1_GWF-(3,4,9)       7.1733112                     1_GWF-(3,10,2)
          8          1          8 -2.42946833E-02                      1_GWF-(3,1,4)       1.7615753                     1_GWF-(3,10,2)
          9          1          9  1.01573578E-02                      1_GWF-(3,4,7)      0.54237519                     1_GWF-(3,10,2)
         10          1         10 -2.48123885E-03                     2_GWF-(3,10,3)      0.12484963                      1_GWF-(3,8,5)
         11          1         11  9.32907335E-04                      2_GWF-(3,8,1)  4.91713064E-02                      1_GWF-(3,7,8)
         12          1         12 -2.06030662E-04                      1_GWF-(3,7,8)  1.15829688E-02                      1_GWF-(3,2,4)
         13          1         13 -5.27206711E-05                      1_GWF-(3,2,4)  3.31504314E-03                      1_GWF-(3,6,9)
         14          2          1       94.200344                      1_GWF-(2,1,2)       3177.3876                      1_GWF-(3,1,6)
         15          2          2      -20.320224                     1_GWF-(3,3,10)       1773.2310                      2_GWF-(3,1,1)
         16          2          3      -6.5178223                      2_GWF-(3,1,1)       780.70242                      2_GWF-(3,1,2)
         17          2          4      -2.3273881                      2_GWF-(3,1,3)      -227.98216                      2_GWF-(3,2,2)
         18          2          5     -0.41582008                      2_GWF-(3,1,4)       91.954482                      2_GWF-(3,2,1)
         19          2          6     -0.20474797                      2_GWF-(3,3,2)      -43.352018                     1_GWF-(3,10,2)
         20          2          7 -5.24116342E-02                      2_GWF-(2,2,1)      -10.604891                     1_GWF-(3,10,2)
         21          2          8 -1.13558210E-02                      1_GWF-(3,3,8)      -3.2355471                     1_GWF-(3,10,2)
         22          2          9  3.97280861E-03                      1_GWF-(2,8,8)      -1.0817972                     1_GWF-(3,10,2)
         23          2         10 -1.70012205E-03                      1_GWF-(2,9,9)      0.31446557                      1_GWF-(3,4,8)
         24          2         11 -3.67721217E-04                      2_GWF-(3,1,2) -8.95346304E-02                      1_GWF-(3,8,5)
         25          2         12  1.25905827E-04                      1_GWF-(2,1,6) -3.29272897E-02                      1_GWF-(3,7,7)
         26          2         13 -3.14381136E-05                      1_GWF-(2,2,8)  6.39611477E-03                      1_GWF-(3,3,8)
         27          3          1       44.829603                      1_GWF-(1,1,2)      -4548.5581                     1_GWF-(3,10,7)
         28          3          2      -16.343517                      1_GWF-(3,3,8)       2219.7541                      2_GWF-(3,2,1)
         29          3          3      -6.0364550                      1_GWF-(3,1,9)      -1247.9566                      1_GWF-(3,2,9)
         30          3          4      -2.5038438                     1_GWF-(3,1,10)      -671.68748                      1_GWF-(3,1,8)
         31          3          5     -0.89816012                      2_GWF-(2,1,1)      -283.18090                     1_GWF-(3,1,10)
         32          3          6     -0.18601541                      2_GWF-(3,1,4)      -112.57726                     1_GWF-(3,1,10)
         33          3          7 -7.98080339E-02                     1_GWF-(2,3,10)      -56.721618                      1_GWF-(3,2,8)
         34          3          8 -3.76209477E-02                      2_GWF-(3,9,3)      -17.551310                      1_GWF-(3,9,9)
         35          3          9 -1.81418059E-02                     2_GWF-(3,10,3)       6.8111359                     2_GWF-(2,10,1)
         36          3         10 -5.66858631E-03                     2_GWF-(2,10,1)       3.1346443                     2_GWF-(2,10,1)
         37          3         11 -2.64879399E-03                      2_GWF-(3,7,4)      -1.0415632                      2_GWF-(3,5,1)
         38          3         12  8.30295091E-04                      2_GWF-(2,1,2)     -0.40585124                     2_GWF-(3,10,1)
         39          3         13  4.81895517E-04                      2_GWF-(2,1,2)      0.19737882                      2_GWF-(3,1,1)
         40          3         14  1.34326180E-04                      2_GWF-(2,1,3)  7.53313802E-02                      2_GWF-(3,1,1)
         41          3         15  6.70305569E-05                      2_GWF-(2,1,3) -3.68626295E-02                     1_GWF-(3,1,10)
         42          3         16  1.83052858E-05                      2_GWF-(3,2,2) -8.23556500E-03                     1_GWF-(3,1,10)
         43          4          1       12.804094                     1_GWF-(1,10,8)      -12596.423                      1_GWF-(1,1,8)
         44          4          2       7.8444712                      1_GWF-(1,3,9)      -3114.7535                      1_GWF-(1,1,8)
         45          4          3      -3.9586385                      1_GWF-(3,2,7)      -1049.4147                      2_GWF-(3,1,1)
         46          4          4      -1.0907583                      1_GWF-(3,1,7)      -444.64742                      2_GWF-(3,1,1)
         47          4          5     -0.46478818                     2_GWF-(2,10,2)       191.39593                     2_GWF-(2,10,2)
         48          4          6     -0.27117995                     2_GWF-(2,10,2)      -91.584218                      1_GWF-(3,9,9)
         49          4          7 -8.35357058E-02                      2_GWF-(2,4,3)      -60.363783                     1_GWF-(3,2,10)
         50          4          8 -4.60394937E-02                     1_GWF-(2,7,10)       18.900665                     1_GWF-(2,3,10)
         51          4          9 -2.33614765E-02                      2_GWF-(3,6,4)      -8.5740788                      2_GWF-(3,8,3)
         52          4         10 -7.76832489E-03                      2_GWF-(3,9,4)      -4.1577371                      2_GWF-(2,2,1)
         53          4         11 -3.00121746E-03                      1_GWF-(1,7,6)      -1.8045254                      2_GWF-(3,9,3)
         54          4         12 -1.27371901E-03                      2_GWF-(3,7,4)      0.92709635                     2_GWF-(2,10,3)
         55          4         13  8.37609054E-04                      2_GWF-(2,1,3)      0.44721749                      2_GWF-(3,2,1)
         56          4         14  3.44679065E-04                      2_GWF-(2,1,3)      0.16995896                     2_GWF-(2,10,3)
         57          4         15 -1.07205965E-04                     2_GWF-(2,10,3)  7.25859279E-02                     2_GWF-(2,10,3)
         58          4         16 -3.09666706E-05                     2_GWF-(2,10,3)  2.91063536E-02                     2_GWF-(2,10,3)
         59          4         17 -1.16783621E-05                      2_GWF-(3,9,4) -1.10562921E-02                      2_GWF-(3,9,3)
         60          4         18 -3.90915483E-06                      2_GWF-(3,9,4) -5.02987111E-03                      2_GWF-(2,2,1)
         61          5          1       4.6320162                      2_GWF-(2,2,4)       2499.2649                      2_GWF-(3,9,4)
         62          5          2       2.1935027                      1_GWF-(3,9,7)      -717.92986                      1_GWF-(3,1,7)
         63          5          3      0.80674812                      1_GWF-(3,1,7)      -316.45257                      1_GWF-(3,1,7)
         64          5          4     -0.25031872                     1_GWF-(1,10,8)      -112.56720                      2_GWF-(3,1,2)
         65          5          5     -0.13172044                      2_GWF-(2,9,3)      -46.301919                      1_GWF-(3,2,6)
         66          5          6 -5.50007973E-02                     2_GWF-(2,10,3)      -19.625327                      2_GWF-(3,1,2)
         67          5          7 -2.83540220E-02                     2_GWF-(2,10,3)      -13.102291                     1_GWF-(3,9,10)
         68          5          8 -1.51094680E-02                      2_GWF-(2,4,2)      -7.6997024                      1_GWF-(3,9,9)
         69          5          9 -6.72243716E-03                      2_GWF-(3,1,4)       3.1995062                      2_GWF-(3,9,4)
         70          5         10 -2.68262796E-03                      2_GWF-(3,6,4)      -1.2198856                      2_GWF-(3,1,3)
         71          5         11  1.07322871E-03                      2_GWF-(2,1,3)      0.58304964                      2_GWF-(3,1,2)
         72          5         12  4.14902994E-04                      2_GWF-(2,1,3)      0.28749612                      2_GWF-(3,1,2)
         73          5         13  1.55431503E-04                      2_GWF-(2,1,3)      0.13025541                     2_GWF-(2,10,3)
         74          5         14 -1.21067864E-04                     2_GWF-(2,10,2)  6.61435153E-02                     2_GWF-(2,10,3)
         75          5         15  2.83265839E-05                      1_GWF-(3,9,8)  3.24881176E-02                     2_GWF-(2,10,3)
         76          5         16 -1.21147200E-05                     2_GWF-(2,10,3)  1.13725495E-02                     2_GWF-(2,10,3)
         77          5         17 -4.59566210E-06                      2_GWF-(3,9,4)  4.50926006E-03                      1_GWF-(3,6,7)
         78          6          1      -1.4360083                     2_GWF-(2,10,3)       643.62798                      2_GWF-(2,1,3)
         79          6          2      0.44836201                      1_GWF-(3,2,8)       476.00894                      2_GWF-(2,1,3)
         80          6          3      0.28213842                     2_GWF-(2,10,4)      -369.24847                      2_GWF-(3,2,3)
         81          6          4      0.28788252                     2_GWF-(2,10,4)      -203.40745                      2_GWF-(3,2,3)
         82          6          5      0.14455817                     2_GWF-(2,10,4)      -90.592555                      2_GWF-(3,1,3)
         83          6          6  2.96008967E-02                     2_GWF-(2,10,4)       55.998667                     2_GWF-(2,10,3)
         84          6          7  1.24465049E-02                     2_GWF-(2,10,4)       40.740411                     2_GWF-(2,10,3)
         85          6          8  1.08808354E-02                      2_GWF-(3,1,3)       21.543892                     2_GWF-(2,10,3)
         86          6          9  3.58206273E-03                      2_GWF-(2,2,2)       9.3647952                     2_GWF-(2,10,3)
         87          6         10  1.48043900E-03                      1_GWF-(3,7,6)       4.7847551                     2_GWF-(2,10,3)
         88          6         11 -9.37141345E-04                     2_GWF-(2,10,2)      -2.1968424                     2_GWF-(3,10,3)
         89          6         12 -4.78356641E-04                      2_GWF-(2,1,3)      -1.1068275                     2_GWF-(3,10,3)
         90          6         13 -2.34142061E-04                      2_GWF-(2,1,3)     -0.41328142                     2_GWF-(3,10,3)
         91          6         14 -7.10707745E-05                     2_GWF-(2,10,4)     -0.16770612                     2_GWF-(3,10,3)
         92          6         15 -2.90869650E-05                     2_GWF-(2,10,4) -6.07390157E-02                     2_GWF-(3,10,3)
         93          6         16 -1.58717879E-05                     2_GWF-(2,10,4) -1.88713811E-02                     2_GWF-(3,10,3)
         94          6         17  5.71315390E-06                     1_GWF-(3,10,9) -6.31648417E-03                     2_GWF-(3,10,3)
         95          7          1     -0.25834511                      2_GWF-(2,4,3)       131.69953                      2_GWF-(2,1,3)
         96          7          2     -0.11117794                     2_GWF-(2,10,3)       89.033618                      2_GWF-(2,1,3)
         97          7          3 -4.65955148E-02                     1_GWF-(3,10,8)      -66.139552                      2_GWF-(3,2,3)
         98          7          4 -2.40221929E-02                      2_GWF-(2,1,3)      -40.134773                      2_GWF-(3,2,3)
         99          7          5 -1.42635742E-02                      2_GWF-(2,1,3)      -16.159400                      2_GWF-(3,2,3)
        100          7          6  2.97116911E-03                      1_GWF-(1,3,8)       9.0227291                      2_GWF-(2,2,3)
        101          7          7 -2.08355659E-03                      1_GWF-(1,5,9)       5.8000317                      2_GWF-(2,2,3)
        102          7          8  2.23823194E-03                      2_GWF-(3,1,3)       2.0951578                     2_GWF-(2,10,3)
        103          7          9  6.00579348E-04                      2_GWF-(2,2,2)      0.77862967                     2_GWF-(2,10,3)
        104          7         10  2.40559698E-04                     1_GWF-(1,10,7)     -0.39144039                     2_GWF-(3,10,3)
        105          7         11  1.48924004E-04                     1_GWF-(2,9,10)     -0.18471877                     2_GWF-(3,10,3)
        106          7         12 -3.92828346E-05                      1_GWF-(3,5,5) -8.46348760E-02                     2_GWF-(3,10,3)
        107          7         13  2.51883379E-05                      2_GWF-(2,8,2) -2.82086325E-02                     2_GWF-(3,10,3)
        108          7         14 -8.09777795E-06                     1_GWF-(3,6,10) -1.04184419E-02                     2_GWF-(3,10,3)
        109          7         15 -4.34288755E-06                      2_GWF-(3,3,1) -4.55482379E-03                     2_GWF-(3,10,3)
        110          8          1  5.08536271E-02                      2_GWF-(3,9,1)      -16.100610                      2_GWF-(2,1,2)
        111          8          2  2.04356192E-02                      2_GWF-(3,1,1)      -13.274506                      2_GWF-(2,1,2)
        112          8          3 -1.43947103E-02                     2_GWF-(2,10,3)       11.201704                      2_GWF-(3,2,2)
        113          8          4 -1.17853900E-02                     2_GWF-(2,10,3)       6.3457439                      2_GWF-(3,1,2)
        114          8          5 -3.92192374E-03                     2_GWF-(2,10,4)      -3.4285052                     2_GWF-(2,10,2)
        115          8          6 -1.74423991E-03                      2_GWF-(3,1,2)      -1.9237637                     2_GWF-(2,10,2)
        116          8          7 -3.60098085E-04                      1_GWF-(3,8,9)      -1.2494697                     2_GWF-(2,10,2)
        117          8          8 -2.60337290E-04                     1_GWF-(3,2,10)      0.74753567                     2_GWF-(3,10,2)
        118          8          9 -9.67996790E-05                     2_GWF-(2,10,4)      0.31715128                     2_GWF-(3,10,2)
        119          8         10  6.58373595E-05                     1_GWF-(2,2,10)      0.14103297                     2_GWF-(3,10,2)
        120          8         11  3.92334319E-05                     1_GWF-(1,10,8) -5.06229002E-02                     2_GWF-(2,10,2)
        121          8         12  1.29039509E-05                      2_GWF-(2,2,1) -2.47334088E-02                     2_GWF-(2,10,2)
        122          8         13  3.99093460E-06                      2_GWF-(3,9,4) -1.17041935E-02                     2_GWF-(2,10,2)
        123          8         14  2.92339494E-06                     2_GWF-(2,10,4)  4.11494634E-03                     2_GWF-(3,10,2)
 --------------------------------------------------------------------------------------------------------------------------------------



    Solving:  Stress period:     2    Time step:     1

1
                            STRESS PERIOD NO. 2, LENGTH =   1.000000    
                            -----------------------------------------------
                            NUMBER OF TIME STEPS = 1
                            MULTIPLIER FOR DELT =     1.000
                            INITIAL TIME STEP SIZE =   1.000000    

 SLN_1 OUTER ITERATION SUMMARY
 ----------------------------------------------------------------------------------------------------------
                                OUTER      INNER                    STEP   MAXIMUM CHANGE MODEL-(CELLID) OR
 OUTER ITERATION STEP       ITERATION  ITERATION  MAXIMUM CHANGE SUCCESS             MODEL-PACKAGE-(NUMBER)
 ----------------------------------------------------------------------------------------------------------
 Model                              1         19      -75.036906                             1_GWF-(1,10,1)
 Model                              2         13      -6.7632136                              2_GWF-(3,3,4)
 Model                              3         12       1.4330127                             1_GWF-(3,9,10)
 Model                              4         11      0.31689701                             2_GWF-(3,10,3)
 Model                              5          9 -8.35922555E-02       *                      2_GWF-(3,2,1)
 ----------------------------------------------------------------------------------------------------------


 5 CALLS TO NUMERICAL SOLUTION IN TIME STEP 1 STRESS PERIOD 2
 64 TOTAL ITERATIONS

 SLN_1 INNER ITERATION SUMMARY
 --------------------------------------------------------------------------------------------------------------------------------------
      TOTAL      OUTER      INNER                                                            MAXIMUM                                   
  ITERATION  ITERATION  ITERATION  MAXIMUM CHANGE      MAXIMUM CHANGE MODEL-(CELLID)        RESIDUAL    MAXIMUM RESIDUAL MODEL-(CELLID)
 --------------------------------------------------------------------------------------------------------------------------------------
          1          1          1      -75.225828                     1_GWF-(2,10,2)       7380.9633                     1_GWF-(1,10,1)
          2          1          2      -23.367667                      1_GWF-(3,1,9)      -4100.5615                      1_GWF-(3,2,9)
          3          1          3      -13.251093                      2_GWF-(3,1,2)      -3015.9414                      2_GWF-(3,2,1)
          4          1          4      -7.4704182                      2_GWF-(2,1,3)      -2012.5996                      2_GWF-(3,1,1)
          5          1          5      -2.7505905                      2_GWF-(2,1,4)      -946.97827                      2_GWF-(3,1,2)
          6          1          6     -0.79135469                     2_GWF-(2,10,3)      -365.77292                      2_GWF-(3,1,3)
          7          1          7      0.37975548                     1_GWF-(3,2,10)      -158.59336                      2_GWF-(3,1,3)
          8          1          8      0.19611912                      1_GWF-(3,4,8)       81.708202                     2_GWF-(2,10,2)
          9          1          9 -9.06558547E-02                      1_GWF-(3,2,6)       38.958498                     2_GWF-(2,10,3)
         10          1         10 -3.05058230E-02                     2_GWF-(2,10,4)       20.340823                     2_GWF-(2,10,3)
         11          1         11 -1.63086120E-02                     2_GWF-(2,10,4)       8.8981020                     2_GWF-(2,10,3)
         12          1         12 -6.90502457E-03                     2_GWF-(2,10,4)       3.5107813                     2_GWF-(2,10,3)
         13          1         13 -2.61205977E-03                     2_GWF-(2,10,4)       1.7914467                     2_GWF-(2,10,4)
         14          1         14 -1.26427679E-03                     2_GWF-(2,10,4)      0.85663615                     2_GWF-(2,10,4)
         15          1         15 -7.55923282E-04                     2_GWF-(2,10,4)      0.36534605                     2_GWF-(2,10,4)
         16          1         16 -2.26445271E-04                     2_GWF-(2,10,4)      0.14290507                     2_GWF-(2,10,4)
         17          1         17 -7.98500415E-05                     2_GWF-(2,10,4)  5.44090249E-02                     2_GWF-(2,10,4)
         18          1         18 -2.32953351E-05                     2_GWF-(2,10,4)  1.96679469E-02                     2_GWF-(2,10,4)
         19          1         19 -8.10860477E-06                     2_GWF-(2,10,4)  5.96824582E-03                     2_GWF-(2,10,4)
         20          2          1      -6.3857582                      2_GWF-(3,2,2)       474.29510                      2_GWF-(3,2,4)
         21          2          2      -1.7675469                    1_GWF-(3,10,10)      -265.70571                      2_GWF-(3,1,1)
         22          2          3      0.71158628                      2_GWF-(3,1,1)       154.18557                     1_GWF-(3,10,3)
         23          2          4      0.31075987                      2_GWF-(3,1,3)       84.500162                     1_GWF-(3,10,2)
         24          2          5  7.48707228E-02                      1_GWF-(2,2,9)      -30.048819                     1_GWF-(2,10,3)
         25          2          6  3.16348932E-02                      2_GWF-(3,2,1)       15.152793                      1_GWF-(3,9,4)
         26          2          7  1.60820215E-02                      1_GWF-(2,5,9)       5.3140106                      1_GWF-(3,9,3)
         27          2          8 -5.18453437E-03                      1_GWF-(3,2,6)       1.4010442                      1_GWF-(3,8,5)
         28          2          9 -1.42802874E-03                      1_GWF-(3,3,5)      0.64955044                      1_GWF-(3,9,6)
         29          2         10  5.56025571E-04                      1_GWF-(2,8,8)      0.18916042                      1_GWF-(3,9,8)
         30          2         11 -1.55645254E-04                      1_GWF-(3,3,8)  5.76938854E-02                      1_GWF-(3,2,3)
         31          2         12  4.67299807E-05                     1_GWF-(3,8,10) -1.85250022E-02                     1_GWF-(2,10,8)
         32          2         13 -1.50260340E-05                     2_GWF-(3,10,2)  6.47401968E-03                     1_GWF-(3,10,8)
         33          3          1       1.3710480                     1_GWF-(3,6,10)       181.72547                     2_GWF-(3,10,4)
         34          3          2      0.52856185                      2_GWF-(3,1,1)      -123.07276                      2_GWF-(3,1,3)
         35          3          3      0.24383048                      2_GWF-(3,1,3)      -52.581703                     1_GWF-(3,10,2)
         36          3          4     -0.13711597                     2_GWF-(3,10,4)      -20.262731                     1_GWF-(3,10,2)
         37          3          5 -4.06622239E-02                     2_GWF-(3,10,2)      -7.0342174                      2_GWF-(3,2,2)
         38          3          6 -1.08996618E-02                      2_GWF-(3,3,1)       3.9411396                      2_GWF-(3,9,4)
         39          3          7 -6.16314843E-03                      2_GWF-(3,9,4)       1.0921425                      1_GWF-(3,9,5)
         40          3          8 -1.72864405E-03                      2_GWF-(3,9,4)     -0.30566369                      2_GWF-(3,3,1)
         41          3          9 -2.57170047E-04                      1_GWF-(3,7,6)     -0.12003435                      1_GWF-(3,2,2)
         42          3         10 -1.40765248E-04                      2_GWF-(3,2,2) -3.16559186E-02                     1_GWF-(2,10,7)
         43          3         11  3.59871873E-05                      2_GWF-(3,3,3)  1.44221554E-02                     1_GWF-(3,10,7)
         44          3         12 -1.57328411E-05                     2_GWF-(3,10,3) -4.99820356E-03                     1_GWF-(2,10,7)
         45          4          1      0.61011518                      2_GWF-(3,3,3)       404.19751                      1_GWF-(3,1,9)
         46          4          2     -0.29607264                      2_GWF-(3,2,1)      -66.863094                      1_GWF-(2,4,9)
         47          4          3     -0.10499406                      2_GWF-(3,1,2)       15.410262                      1_GWF-(3,2,8)
         48          4          4 -2.62488271E-02                      2_GWF-(3,1,3)       5.4184871                      1_GWF-(3,2,9)
         49          4          5 -6.24457986E-03                      2_GWF-(3,1,3)       1.6590011                      1_GWF-(3,2,9)
         50          4          6 -2.70152287E-03                      2_GWF-(3,6,1)     -0.99536033                      1_GWF-(3,9,5)
         51          4          7 -1.19868561E-03                      2_GWF-(3,1,4)     -0.30620273                      1_GWF-(3,9,4)
         52          4          8 -4.02600836E-04                      2_GWF-(3,2,4) -8.39350480E-02                     1_GWF-(3,10,7)
         53          4          9 -9.39056526E-05                      2_GWF-(3,6,1) -3.85108016E-02                      1_GWF-(3,8,5)
         54          4         10 -5.57708053E-05                      1_GWF-(3,9,9) -1.00349655E-02                      1_GWF-(3,9,8)
         55          4         11  1.28740182E-05                      1_GWF-(2,2,9)  3.51547329E-03                     1_GWF-(2,10,7)
         56          5          1 -7.82015335E-02                      1_GWF-(2,3,8)       10.555724                      2_GWF-(3,1,2)
         57          5          2 -3.19610789E-02                      2_GWF-(3,1,2)       6.8192228                      2_GWF-(3,1,3)
         58          5          3 -1.38581903E-02                      2_GWF-(3,1,3)       4.7865147                      1_GWF-(3,2,9)
         59          5          4  6.45852262E-03                     2_GWF-(3,10,4)       1.4734455                      1_GWF-(3,9,9)
         60          5          5  2.25458201E-03                     2_GWF-(3,10,4)     -0.52271267                      1_GWF-(3,2,8)
         61          5          6  5.82211923E-04                      2_GWF-(3,3,1)      0.27137346                      1_GWF-(3,9,4)
         62          5          7  4.00310460E-04                      2_GWF-(3,9,4)  6.90506183E-02                      1_GWF-(3,2,5)
         63          5          8  1.18852626E-04                      2_GWF-(3,9,4) -1.63710155E-02                      1_GWF-(3,3,8)
         64          5          9  1.58335827E-05                      1_GWF-(2,3,8)  6.94023581E-03                      1_GWF-(3,2,2)
 --------------------------------------------------------------------------------------------------------------------------------------




 Solution SLN_1 summary
 ----------------------------------------------------------------------
 Total formulate time:  0.27149999999999952E-2 seconds
 Total solution time:   0.20360000000000100E-2 seconds


 MEMORY MANAGER TOTAL STORAGE BY DATA TYPE, IN MEGABYTES
 -------------------------------
                    ALLOCATED   
 DATA TYPE           MEMORY     
 -------------------------------
 Character        1.07110000E-02
 Logical          6.80000000E-05
 Integer          2.1060720     
 Real             3.4167760     
 -------------------------------
 Total            5.5336270     
 Virtual          0.0000000     
 -------------------------------



 Run end date and time (yyyy/mm/dd hh:mm:ss): 2023/10/30  9:20:40
 Elapsed run time:  0.032 Seconds
 Normal termination of simulation.
