                             MODFLOW 6 PROFESSIONAL
                U.S. GEOLOGICAL SURVEY MODULAR HYDROLOGIC MODEL
                          GROUNDWATER FLOW MODEL (GWF)
                  VERSION 6.5.0.dev0 (preliminary) 07/13/2023
                               ***DEVELOP MODE***

        MODFLOW 6 compiled Oct 30 2023 08:23:02 with GCC version 11.3.0

This software is preliminary or provisional and is subject to 
revision. It is being provided to meet the need for timely best 
science. The software has not received final approval by the U.S. 
Geological Survey (USGS). No warranty, expressed or implied, is made 
by the USGS or the U.S. Government as to the functionality of the 
software and related material nor shall the fact of release 
constitute any such warranty. The software is provided on the 
condition that neither the USGS nor the U.S. Government shall be held 
liable for any damages resulting from the authorized or unauthorized 
use of the software.


As a work of the United States Government, this USGS product is 
in the public domain within the United States. You can copy, 
modify, distribute, and perform the work, even for commercial 
purposes, all without asking permission. Additionally, USGS 
waives copyright and related rights in the work worldwide 
through CC0 1.0 Universal Public Domain Dedication 
(https://creativecommons.org/publicdomain/zero/1.0/).

The following GNU Lesser General Public License (LGPL) libraries
are used in this USGS product:

    SPARSKIT version 2.0
      ilut, luson, and qsplit 
      (https://www-users.cse.umn.edu/~saad/software/SPARSKIT/)

    RCM - Reverse Cuthill McKee Ordering
      (https://people.math.sc.edu/Burkardt/f_src/rcm/rcm.html)

    BLAS - Basic Linear Algebra Subprograms Level 1
      (https://people.math.sc.edu/Burkardt/f_src/blas1_d/blas1_d.html)

    SPARSEKIT - Sparse Matrix Utility Package
      amux, dperm, dvperm, rperm, and cperm
      (https://people.sc.fsu.edu/~jburkardt/f77_src/sparsekit/sparsekit.html)

The following BSD-3 License libraries are used in this USGS product:

    Modern Fortran DAG Library
      Copyright (c) 2018, Jacob Williams
      All rights reserved.
      (https://github.com/jacobwilliams/daglib)

The following 2-clause BSD License library is used in this
USGS product:

    PETSc, the Portable, Extensible Toolkit for Scientific
    Computation Library
      Copyright (c) 1991-2021, UChicago Argonne, LLC
      and the PETSc Development Team All rights reserved.
      (https://petsc.org/release/)

MODFLOW 6 compiler options: -cpp -I src/libmf6core.a.p -I src -I ../src -I
src/libmf6_external.a.p -I
/home/mreno/.clone/external/petsc/arch-linux-c-debug/include -I
/home/mreno/.clone/external/petsc/include -I
/home/mreno/.clone/external/petsc/arch-linux-c-debug/lib -I
/home/mreno/miniconda3/envs/modflow6/include -I -fdiagnostics-color=always
-imultiarch x86_64-linux-gnu -D _FILE_OFFSET_BITS=64 -D __linux__ -D
__WITH_PETSC__ -D __WITH_MPI__ -D __WITH_NETCDF__ -mtune=generic
-march=x86-64 -g -O2 -Wall -Wpedantic -Wcharacter-truncation
-Wno-unused-dummy-argument -Wno-intrinsic-shadow -Wno-maybe-uninitialized
-Wno-uninitialized -std=f2008 -fall-intrinsics -fbacktrace -fcheck=all
-ffpe-trap=overflow,zero,invalid -ffpe-summary=overflow
-ffpe-trap=overflow,zero,invalid -fPIC -J src/libmf6core.a.p
-fpre-include=/usr/include/finclude/math-vector-fortran.h

System command used to initiate simulation:
/home/mreno/.clone/usgs/w/netcdf/2/modflow6/bin/mf6

MODFLOW was compiled using uniform precision.

Real Variables
  KIND: 8
  TINY (smallest non-zero value):    2.225074-308
  HUGE (largest value):    1.797693+308
  PRECISION: 15
  SIZE IN BITS: 64

Integer Variables
  KIND: 4
  HUGE (largest value): 2147483647
  SIZE IN BITS: 32

Long Integer Variables
  KIND: 8
  HUGE (largest value): 9223372036854775807
  SIZE IN BITS: 64

Logical Variables
  KIND: 4
  SIZE IN BITS: 32

 NAMEFILE OPTIONS:
 END NAMEFILE OPTIONS:

 DIS -- STRUCTURED GRID DISCRETIZATION PACKAGE, VERSION 2 : 3/27/2014 - INPUT READ FROM MEMPATH: __INPUT__/GWF0/DIS                                


 NPF -- NODE PROPERTY FLOW PACKAGE, VERSION 1, 3/30/2015 INPUT READ FROM MEMPATH: __INPUT__/GWF0/NPF                                

 Setting Discretization Options
 End Setting Discretization Options

 Setting Discretization Dimensions
    NLAY = 1
    NROW = 10
    NCOL = 10
 End Setting Discretization Dimensions

 Setting Discretization Griddata
    DELR set from input file
    DELC set from input file
    TOP set from input file
    BOTM set from input file
 End Setting Discretization Griddata

 Setting NPF Options
    Rewetting is active.
    Wetting factor (WETFCT) has been set to:     1.00000    
    Wetting iteration interval (IWETIT) has been set to:     1
    Head rewet equation (IHDWET) has been set to:     1
 End Setting NPF Options

 Setting NPF Griddata
    ICELLTYPE set from input file
    K set from input file
    K33 not provided.  Setting K33 = K.
    K22 not provided.  Setting K22 = K.
    WETDRY set from input file
 End Setting NPF Griddata


 CHD   -- CHD PACKAGE, VERSION 8, 2/22/2014 INPUT READ FROM MEMPATH: __INPUT__/GWF0/CHD1                               

 PROCESSING CHD BASE OPTIONS
    LISTS OF CHD CELLS WILL BE PRINTED.
 END OF CHD BASE OPTIONS

 PROCESSING CHD BASE DIMENSIONS
    MAXBOUND =      10
 END OF CHD BASE DIMENSIONS

 IC -- INITIAL CONDITIONS PACKAGE, VERSION 8, 3/28/2015 INPUT READ FROM UNIT 1005
 # File generated by Flopy version 3.5.0.dev0 on 10/30/2023 at 09:20:40.
 PROCESSING GRIDDATA

     INITIAL HEAD =  -40.00000    
 END PROCESSING GRIDDATA
    BINARY GRID INFORMATION WILL BE WRITTEN TO:
      UNIT NUMBER: 1019
      FILE NAME: gwf0.dis.grb

 OPENED gwf0.dis.grb
 FILE TYPE:DATA(BINARY)   UNIT 1019   STATUS:REPLACE             
 FORMAT:UNFORMATTED            ACCESS:STREAM              
 ACTION:READWRITE           

      THE LAST TIME STEP WILL BE PRINTED
      THE LAST TIME STEP WILL BE PRINTED
 # File generated by Flopy version 3.5.0.dev0 on 10/30/2023 at 09:20:40.

 PROCESSING OC OPTIONS

    BUDGET INFORMATION WILL BE WRITTEN TO:
      UNIT NUMBER: 1020
      FILE NAME: gwf0.cbc

 OPENED gwf0.cbc
 FILE TYPE:DATA(BINARY)   UNIT 1020   STATUS:REPLACE             
 FORMAT:UNFORMATTED            ACCESS:STREAM              
 ACTION:READWRITE           

    HEAD INFORMATION WILL BE WRITTEN TO:
      UNIT NUMBER: 1021
      FILE NAME: gwf0.hds

 OPENED gwf0.hds
 FILE TYPE:DATA(BINARY)   UNIT 1021   STATUS:REPLACE             
 FORMAT:UNFORMATTED            ACCESS:STREAM              
 ACTION:READWRITE           

 END OF OC OPTIONS

start timestep kper="1" kstp="1" mode="normal"


 BEGIN READING OUTPUT CONTROL FOR STRESS PERIOD 1
      THE LAST TIME STEP WILL BE SAVED
      THE LAST TIME STEP WILL BE PRINTED
      THE LAST TIME STEP WILL BE PRINTED

 END READING OUTPUT CONTROL FOR STRESS PERIOD 1
 ---------------------------------------------------
  CHD NO.    LAYER    ROW     COL         HEAD      
 ---------------------------------------------------
     1         1       1       1     100.000000     
     2         1       2       1     100.000000     
     3         1       3       1     100.000000     
     4         1       4       1     100.000000     
     5         1       5       1     100.000000     
     6         1       6       1     100.000000     
     7         1       7       1     100.000000     
     8         1       8       1     100.000000     
     9         1       9       1     100.000000     
     10        1      10       1     100.000000     
 ---------------------------------------------------



 SLN_1 INNER ITERATION SUMMARY
 --------------------------------------------------------------------------------------------------------------------------------------
      TOTAL      OUTER      INNER                                                            MAXIMUM                                   
  ITERATION  ITERATION  ITERATION  MAXIMUM CHANGE      MAXIMUM CHANGE MODEL-(CELLID)        RESIDUAL    MAXIMUM RESIDUAL MODEL-(CELLID)
 --------------------------------------------------------------------------------------------------------------------------------------
          1          1          1       132.58403                     1_GWF-(1,10,2)      -1410.2684                      1_GWF-(1,1,7)
          2          1          2       31.029958                      1_GWF-(1,1,9)       651.20039                     1_GWF-(1,10,7)
          3          1          3      -12.212677                     1_GWF-(1,10,7)       324.92816                     1_GWF-(1,10,4)
          4          1          4      -2.9500675                     1_GWF-(1,10,4)       132.16602                     1_GWF-(1,10,3)
          5          1          5      0.96711845                     1_GWF-(1,2,10)       43.748003                      1_GWF-(1,9,6)
          6          1          6      0.19183554                     1_GWF-(1,1,10)       14.167756                     1_GWF-(1,10,2)
          7          1          7      0.11039513                      1_GWF-(1,4,9)       7.3195357                     1_GWF-(1,10,2)
          8          1          8 -2.35236078E-02                      1_GWF-(1,1,4)       1.8401728                     1_GWF-(1,10,2)
          9          1          9  1.03060542E-02                      1_GWF-(1,4,7)      0.57360373                     1_GWF-(1,10,2)
         10          1         10  2.04611399E-03                      1_GWF-(1,9,5)      0.12222419                     1_GWF-(1,10,2)
         11          1         11  8.53367982E-04                     1_GWF-(1,8,10)  4.96599844E-02                      1_GWF-(1,7,8)
         12          1         12 -2.03964624E-04                      1_GWF-(1,7,8)  1.17759869E-02                      1_GWF-(1,2,4)
         13          1         13 -5.56447829E-05                      1_GWF-(1,2,4)  3.29973075E-03                      1_GWF-(1,6,9)
         14          2          1       37.540029                     1_GWF-(1,3,10)       5282.9250                      1_GWF-(1,1,5)
         15          2          2       16.097430                     1_GWF-(1,10,9)      -3417.1980                     1_GWF-(1,10,5)
         16          2          3       6.4561229                     1_GWF-(1,10,6)      -2258.8339                     1_GWF-(1,10,3)
         17          2          4       2.2590026                     1_GWF-(1,8,10)      -902.90298                     1_GWF-(1,10,2)
         18          2          5      0.62935236                     1_GWF-(1,2,10)      -545.18192                     1_GWF-(1,10,2)
         19          2          6     -0.38587435                     1_GWF-(1,2,10)      -207.00577                     1_GWF-(1,10,2)
         20          2          7  9.56826282E-02                      1_GWF-(1,9,6)      -57.709167                      1_GWF-(1,9,4)
         21          2          8 -2.98349247E-02                     1_GWF-(1,1,10)      -22.986114                      1_GWF-(1,9,4)
         22          2          9 -6.48627506E-03                     1_GWF-(1,9,10)      -5.7317512                      1_GWF-(1,8,6)
         23          2         10 -1.79523339E-03                      1_GWF-(1,3,8)     -0.97792198                      1_GWF-(1,8,5)
         24          2         11  4.63525859E-04                      1_GWF-(1,1,7)      0.37191505                      1_GWF-(1,1,3)
         25          2         12 -1.47499374E-04                      1_GWF-(1,2,8)      0.11554603                      1_GWF-(1,1,3)
         26          2         13 -4.48017888E-05                      1_GWF-(1,5,7)  2.53283114E-02                      1_GWF-(1,7,5)
         27          2         14 -1.36323514E-05                      1_GWF-(1,9,6) -6.97567130E-03                      1_GWF-(1,6,8)
         28          3          1      -9.1250098                     1_GWF-(1,7,10)       2461.0262                     1_GWF-(1,1,10)
         29          3          2      -3.6061440                     1_GWF-(1,1,10)       1029.2028                     1_GWF-(1,10,4)
         30          3          3       1.4550708                     1_GWF-(1,9,10)       734.46723                     1_GWF-(1,2,10)
         31          3          4      0.70723246                    1_GWF-(1,10,10)       326.97325                      1_GWF-(1,9,7)
         32          3          5      0.28554271                    1_GWF-(1,10,10)       108.40302                      1_GWF-(1,9,5)
         33          3          6      0.10187486                     1_GWF-(1,3,10)       69.199204                      1_GWF-(1,9,5)
         34          3          7  4.96571799E-02                     1_GWF-(1,10,9)       15.618466                     1_GWF-(1,3,10)
         35          3          8  1.19255321E-02                     1_GWF-(1,1,10)      -5.0659594                     1_GWF-(1,4,10)
         36          3          9  3.71345809E-03                      1_GWF-(1,9,9)       1.8557487                      1_GWF-(1,2,3)
         37          3         10  1.01143407E-03                     1_GWF-(1,2,10)      0.55349652                     1_GWF-(1,4,10)
         38          3         11  3.52183822E-04                      1_GWF-(1,3,7)      0.13817402                      1_GWF-(1,3,7)
         39          3         12 -7.27110573E-05                      1_GWF-(1,1,5)  5.55414565E-02                      1_GWF-(1,2,2)
         40          3         13  1.61432781E-05                      1_GWF-(1,1,3)  1.13157695E-02                      1_GWF-(1,2,4)
         41          3         14  4.53049975E-06                      1_GWF-(1,9,7) -2.96816898E-03                      1_GWF-(1,3,3)
         42          4          1      -2.1433244                     1_GWF-(1,1,10)      -428.34389                      1_GWF-(1,1,7)
         43          4          2     -0.97482054                    1_GWF-(1,10,10)      -324.01692                     1_GWF-(1,1,10)
         44          4          3     -0.44644213                     1_GWF-(1,10,9)       117.42387                     1_GWF-(1,2,10)
         45          4          4     -0.17771330                     1_GWF-(1,7,10)      -47.348872                      1_GWF-(1,2,9)
         46          4          5 -3.52276183E-02                      1_GWF-(1,8,8)      -20.178761                     1_GWF-(1,2,10)
         47          4          6 -1.47997205E-02                     1_GWF-(1,8,10)       4.9760312                      1_GWF-(1,1,9)
         48          4          7  5.20621142E-03                     1_GWF-(1,5,10)      -2.2933420                      1_GWF-(1,3,8)
         49          4          8 -1.56260087E-03                     1_GWF-(1,10,5)      0.96669073                     1_GWF-(1,10,2)
         50          4          9 -8.20306143E-04                      1_GWF-(1,8,8)     -0.49428828                     1_GWF-(1,3,10)
         51          4         10  1.96392716E-04                      1_GWF-(1,5,6)     -0.11483939                      1_GWF-(1,4,8)
         52          4         11 -4.34499363E-05                      1_GWF-(1,3,5) -3.80425015E-02                      1_GWF-(1,2,3)
         53          4         12 -1.78024594E-05                      1_GWF-(1,2,7) -9.20788261E-03                      1_GWF-(1,3,3)
         54          5          1      0.48722384                     1_GWF-(1,8,10)      -137.44216                     1_GWF-(1,1,10)
         55          5          2      0.22207574                     1_GWF-(1,1,10)      -52.507706                     1_GWF-(1,10,5)
         56          5          3 -8.05467071E-02                     1_GWF-(1,9,10)      -33.853191                      1_GWF-(1,2,9)
         57          5          4 -4.23085244E-02                    1_GWF-(1,10,10)      -15.337542                      1_GWF-(1,9,7)
         58          5          5 -1.59365341E-02                    1_GWF-(1,10,10)      -4.9490409                      1_GWF-(1,9,5)
         59          5          6 -5.07723582E-03                     1_GWF-(1,3,10)      -2.9368099                      1_GWF-(1,9,5)
         60          5          7 -2.25892078E-03                     1_GWF-(1,10,9)      0.85242514                     1_GWF-(1,2,10)
         61          5          8 -6.78952413E-04                     1_GWF-(1,2,10)      0.24446305                     1_GWF-(1,4,10)
         62          5          9 -1.78316943E-04                      1_GWF-(1,9,9) -8.96641847E-02                      1_GWF-(1,2,3)
         63          5         10 -5.48689690E-05                     1_GWF-(1,1,10)  2.50999075E-02                      1_GWF-(1,4,7)
         64          5         11 -1.58054736E-05                      1_GWF-(1,3,7)  7.07044844E-03                      1_GWF-(1,5,2)
         65          6          1      0.11747628                     1_GWF-(1,2,10)       24.303293                      1_GWF-(1,1,7)
         66          6          2  5.45165630E-02                    1_GWF-(1,10,10)       18.481533                     1_GWF-(1,1,10)
         67          6          3  2.42355570E-02                     1_GWF-(1,10,9)      -7.3105935                     1_GWF-(1,2,10)
         68          6          4  9.29520159E-03                     1_GWF-(1,7,10)       2.5009796                      1_GWF-(1,2,8)
         69          6          5  1.92792097E-03                      1_GWF-(1,8,7)       1.2341571                     1_GWF-(1,2,10)
         70          6          6  8.09951278E-04                     1_GWF-(1,8,10)      0.37009508                     1_GWF-(1,2,10)
         71          6          7  3.05476471E-04                      1_GWF-(1,9,6)      0.14309517                      1_GWF-(1,3,8)
         72          6          8  9.57483694E-05                     1_GWF-(1,10,5) -5.10393529E-02                      1_GWF-(1,2,7)
         73          6          9  4.65373778E-05                      1_GWF-(1,8,8)  2.69060719E-02                     1_GWF-(1,3,10)
         74          6         10 -1.12039109E-05                      1_GWF-(1,5,6) -5.91805717E-03                      1_GWF-(1,3,5)
         75          7          1 -2.64493796E-02                     1_GWF-(1,8,10)       7.8717400                     1_GWF-(1,1,10)
         76          7          2 -1.25867298E-02                     1_GWF-(1,1,10)       2.8659332                     1_GWF-(1,10,5)
         77          7          3  4.45419539E-03                     1_GWF-(1,9,10)       1.8884340                      1_GWF-(1,2,9)
         78          7          4  2.41204444E-03                    1_GWF-(1,10,10)      0.83177719                      1_GWF-(1,9,7)
         79          7          5  8.73302900E-04                    1_GWF-(1,10,10)      0.26654817                      1_GWF-(1,9,5)
         80          7          6  2.59978314E-04                     1_GWF-(1,3,10)      0.15098875                      1_GWF-(1,9,5)
         81          7          7  1.18537609E-04                     1_GWF-(1,10,9) -5.08853016E-02                     1_GWF-(1,2,10)
         82          7          8  3.89880700E-05                     1_GWF-(1,2,10) -1.32229954E-02                     1_GWF-(1,4,10)
         83          7          9  9.64188561E-06                      1_GWF-(1,9,9)  4.97493949E-03                      1_GWF-(1,2,3)
 --------------------------------------------------------------------------------------------------------------------------------------


1
  HEAD IN LAYER   1 AT END OF TIME STEP   1 IN STRESS PERIOD    1
  ---------------------------------------------------------------------------

                1               2               3               4               5               6               7               8               9              10
 ................................................................................................................................................................
   1      100.000         94.9119         89.6385         84.1578         78.4433         72.4620         66.1725         59.5215         52.4380         44.8239    
   2      100.000         94.9119         89.6385         84.1578         78.4433         72.4620         66.1725         59.5215         52.4380         44.8239    
   3      100.000         94.9119         89.6385         84.1578         78.4433         72.4620         66.1725         59.5215         52.4380         44.8239    
   4      100.000         94.9119         89.6385         84.1578         78.4433         72.4620         66.1725         59.5215         52.4380         44.8239    
   5      100.000         94.9119         89.6385         84.1578         78.4433         72.4620         66.1725         59.5215         52.4380         44.8239    
   6      100.000         94.9119         89.6385         84.1578         78.4433         72.4620         66.1725         59.5215         52.4380         44.8239    
   7      100.000         94.9119         89.6385         84.1578         78.4433         72.4620         66.1725         59.5215         52.4380         44.8239    
   8      100.000         94.9119         89.6385         84.1578         78.4433         72.4620         66.1725         59.5215         52.4380         44.8239    
   9      100.000         94.9119         89.6385         84.1578         78.4433         72.4620         66.1725         59.5215         52.4380         44.8239    
  10      100.000         94.9119         89.6385         84.1578         78.4433         72.4620         66.1725         59.5215         52.4380         44.8239    

 HEAD WILL BE SAVED ON UNIT 1021 AT END OF TIME STEP    1, STRESS PERIOD    1


  VOLUME BUDGET FOR ENTIRE MODEL AT END OF TIME STEP    1, STRESS PERIOD   1
  ---------------------------------------------------------------------------------------------------

     CUMULATIVE VOLUME      L**3       RATES FOR THIS TIME STEP      L**3/T          PACKAGE NAME    
     ------------------                 ------------------------                     ----------------

           IN:                                      IN:
           ---                                      ---
                 CHD =       75005.0706                   CHD =       75005.0706     CHD1                             
        FLOW-JA-FACE =           0.0000          FLOW-JA-FACE =           0.0000     GWF-GWF_1                        

            TOTAL IN =       75005.0706              TOTAL IN =       75005.0706

          OUT:                                     OUT:
          ----                                     ----
                 CHD =           0.0000                   CHD =           0.0000     CHD1                             
        FLOW-JA-FACE =       75005.0742          FLOW-JA-FACE =       75005.0742     GWF-GWF_1                        

           TOTAL OUT =       75005.0742             TOTAL OUT =       75005.0742

            IN - OUT =      -3.5673E-03              IN - OUT =      -3.5673E-03

 PERCENT DISCREPANCY =          -0.00     PERCENT DISCREPANCY =          -0.00




         TIME SUMMARY AT END OF TIME STEP    1 IN STRESS PERIOD    1
                    SECONDS     MINUTES      HOURS       DAYS        YEARS
                    -----------------------------------------------------------
   TIME STEP LENGTH  86400.      1440.0      24.000      1.0000     2.73785E-03
 STRESS PERIOD TIME  86400.      1440.0      24.000      1.0000     2.73785E-03
         TOTAL TIME  86400.      1440.0      24.000      1.0000     2.73785E-03


end timestep


start timestep kper="2" kstp="1" mode="normal"


 END OF FILE DETECTED IN OUTPUT CONTROL.
 CURRENT OUTPUT CONTROL SETTINGS WILL BE 
 REPEATED UNTIL THE END OF THE SIMULATION.

 OUTPUT CONTROL FOR STRESS PERIOD 2 IS REPEATED USING SETTINGS FROM A PREVIOUS STRESS PERIOD.
 ---------------------------------------------------
  CHD NO.    LAYER    ROW     COL         HEAD      
 ---------------------------------------------------
     1         1       1       1     25.0000000     
     2         1       2       1     25.0000000     
     3         1       3       1     25.0000000     
     4         1       4       1     25.0000000     
     5         1       5       1     25.0000000     
     6         1       6       1     25.0000000     
     7         1       7       1     25.0000000     
     8         1       8       1     25.0000000     
     9         1       9       1     25.0000000     
     10        1      10       1     25.0000000     
 ---------------------------------------------------



 SLN_1 INNER ITERATION SUMMARY
 --------------------------------------------------------------------------------------------------------------------------------------
      TOTAL      OUTER      INNER                                                            MAXIMUM                                   
  ITERATION  ITERATION  ITERATION  MAXIMUM CHANGE      MAXIMUM CHANGE MODEL-(CELLID)        RESIDUAL    MAXIMUM RESIDUAL MODEL-(CELLID)
 --------------------------------------------------------------------------------------------------------------------------------------
          1          1          1      -70.516459                     1_GWF-(1,10,2)       8275.0425                      1_GWF-(1,1,7)
          2          1          2      -24.734832                     1_GWF-(1,1,10)      -3117.5499                     1_GWF-(1,10,7)
          3          1          3      -6.9314267                     1_GWF-(1,1,10)      -1735.3850                     1_GWF-(1,10,4)
          4          1          4      -1.8522670                      1_GWF-(1,3,9)      -717.40430                     1_GWF-(1,10,2)
          5          1          5     -0.39651256                     1_GWF-(1,2,10)      -303.63999                     1_GWF-(1,10,2)
          6          1          6     -0.23248936                      1_GWF-(1,4,9)      -167.51372                     1_GWF-(1,10,2)
          7          1          7  6.02908194E-02                     1_GWF-(1,7,10)      -41.050917                      1_GWF-(1,9,5)
          8          1          8 -1.96491313E-02                     1_GWF-(1,3,10)      -11.970610                      1_GWF-(1,9,4)
          9          1          9  5.47228294E-03                      1_GWF-(1,8,9)      -4.0762506                      1_GWF-(1,9,4)
         10          1         10 -1.48942026E-03                     1_GWF-(1,9,10)       1.0013990                      1_GWF-(1,8,4)
         11          1         11  3.22243486E-04                      1_GWF-(1,1,5)     -0.42612774                      1_GWF-(1,8,5)
         12          1         12 -1.12867312E-04                      1_GWF-(1,3,6) -8.33579635E-02                      1_GWF-(1,7,7)
         13          1         13 -2.59612716E-05                      1_GWF-(1,2,8)  3.00119382E-02                      1_GWF-(1,7,5)
         14          1         14 -7.21004391E-06                      1_GWF-(1,1,4) -5.43351558E-03                      1_GWF-(1,7,6)
         15          2          1      -5.5260243                     1_GWF-(1,1,10)      -462.34201                      1_GWF-(1,1,6)
         16          2          2      -1.7192771                    1_GWF-(1,10,10)      -228.48114                     1_GWF-(1,1,10)
         17          2          3     -0.79526832                     1_GWF-(1,10,7)       120.38669                     1_GWF-(1,10,4)
         18          2          4     -0.21328895                     1_GWF-(1,8,10)       51.334892                     1_GWF-(1,10,3)
         19          2          5  5.55385730E-02                     1_GWF-(1,2,10)       19.130957                     1_GWF-(1,10,2)
         20          2          6 -1.39497664E-02                     1_GWF-(1,7,10)       4.9239861                     1_GWF-(1,10,2)
         21          2          7  4.93097601E-03                      1_GWF-(1,3,9)       2.1426618                     1_GWF-(1,10,2)
         22          2          8 -1.94236321E-03                     1_GWF-(1,5,10)      0.84280285                      1_GWF-(1,9,4)
         23          2          9 -7.05567184E-04                      1_GWF-(1,8,8)      0.30170043                      1_GWF-(1,9,4)
         24          2         10  2.21250670E-04                      1_GWF-(1,9,9) -6.99227747E-02                      1_GWF-(1,8,4)
         25          2         11 -6.01612760E-05                      1_GWF-(1,1,5)  2.54912470E-02                      1_GWF-(1,8,5)
         26          2         12  1.40503053E-05                      1_GWF-(1,3,6)  4.78026749E-03                      1_GWF-(1,7,7)
         27          3          1       1.3453895                     1_GWF-(1,5,10)       98.259000                      1_GWF-(1,1,5)
         28          3          2      0.52790741                     1_GWF-(1,10,8)      -68.842154                     1_GWF-(1,10,5)
         29          3          3      0.21572231                     1_GWF-(1,10,5)      -38.973376                     1_GWF-(1,10,3)
         30          3          4  7.06288176E-02                      1_GWF-(1,7,9)      -16.317036                      1_GWF-(1,9,7)
         31          3          5  3.09884862E-02                     1_GWF-(1,2,10)      -5.7681303                      1_GWF-(1,9,6)
         32          3          6 -9.22451058E-03                     1_GWF-(1,2,10)      -4.2209652                      1_GWF-(1,9,5)
         33          3          7 -3.89536273E-03                     1_GWF-(1,10,9)     -0.88129961                      1_GWF-(1,9,4)
         34          3          8 -9.39491102E-04                     1_GWF-(1,1,10)      0.25028696                      1_GWF-(1,3,9)
         35          3          9 -3.17722833E-04                      1_GWF-(1,9,9) -9.88736688E-02                      1_GWF-(1,8,6)
         36          3         10  8.64171185E-05                      1_GWF-(1,8,6)  2.33674817E-02                      1_GWF-(1,4,7)
         37          3         11 -2.14596984E-05                      1_GWF-(1,4,8) -7.50409355E-03                      1_GWF-(1,3,7)
         38          4          1      0.17172135                     1_GWF-(1,1,10)       31.129148                      1_GWF-(1,1,9)
         39          4          2 -9.43835571E-02                      1_GWF-(1,1,9)       17.986853                     1_GWF-(1,1,10)
         40          4          3  6.47582022E-02                    1_GWF-(1,10,10)      -8.0058841                     1_GWF-(1,10,7)
         41          4          4  1.69008239E-02                     1_GWF-(1,10,7)       3.6374571                     1_GWF-(1,2,10)
         42          4          5  6.10516349E-03                     1_GWF-(1,5,10)       1.2475880                     1_GWF-(1,2,10)
         43          4          6  2.11964488E-03                      1_GWF-(1,9,9)     -0.46052045                      1_GWF-(1,9,7)
         44          4          7  8.74750211E-04                      1_GWF-(1,9,7)      0.15010141                      1_GWF-(1,3,9)
         45          4          8 -1.64737553E-04                      1_GWF-(1,3,9)  5.43724125E-02                     1_GWF-(1,3,10)
         46          4          9  8.49878695E-05                      1_GWF-(1,2,8) -1.53140887E-02                      1_GWF-(1,3,7)
         47          4         10 -2.08124337E-05                     1_GWF-(1,9,10)  6.19330500E-03                      1_GWF-(1,2,3)
         48          5          1 -8.59489923E-02                     1_GWF-(1,4,10)      -7.1975317                      1_GWF-(1,1,5)
         49          5          2 -3.70559383E-02                     1_GWF-(1,10,9)       4.3139061                     1_GWF-(1,10,6)
         50          5          3 -1.40957427E-02                     1_GWF-(1,10,6)       2.5358630                     1_GWF-(1,2,10)
         51          5          4 -5.23817617E-03                      1_GWF-(1,7,9)      0.87847434                      1_GWF-(1,9,8)
         52          5          5 -2.00662348E-03                     1_GWF-(1,2,10)     -0.38818929                      1_GWF-(1,2,9)
         53          5          6 -7.16110901E-04                      1_GWF-(1,5,9)      0.22517895                      1_GWF-(1,9,5)
         54          5          7 -2.58458094E-04                      1_GWF-(1,9,5)  4.60961727E-02                      1_GWF-(1,9,4)
         55          5          8 -5.61514573E-05                      1_GWF-(1,7,7) -1.73497960E-02                      1_GWF-(1,3,9)
         56          5          9  1.15253745E-05                      1_GWF-(1,5,5)  4.71391614E-03                      1_GWF-(1,8,6)
         57          6          1  1.12974031E-02                      1_GWF-(1,9,9)      -2.1849090                     1_GWF-(1,1,10)
         58          6          2  7.11078443E-03                      1_GWF-(1,1,9)       1.1605852                    1_GWF-(1,10,10)
         59          6          3 -4.08132828E-03                    1_GWF-(1,10,10)      0.55791331                     1_GWF-(1,10,8)
         60          6          4 -1.30071642E-03                     1_GWF-(1,10,8)     -0.22146294                     1_GWF-(1,2,10)
         61          6          5 -4.32927207E-04                     1_GWF-(1,4,10) -8.96106567E-02                     1_GWF-(1,2,10)
         62          6          6 -1.60768225E-04                      1_GWF-(1,9,9) -3.86998819E-02                      1_GWF-(1,9,4)
         63          6          7 -5.76389032E-05                      1_GWF-(1,9,7)  1.06059855E-02                     1_GWF-(1,2,10)
         64          6          8 -1.10059232E-05                     1_GWF-(1,2,10) -3.66722428E-03                     1_GWF-(1,3,10)
 --------------------------------------------------------------------------------------------------------------------------------------


1
  HEAD IN LAYER   1 AT END OF TIME STEP   1 IN STRESS PERIOD    2
  ---------------------------------------------------------------------------

                1               2               3               4               5               6               7               8               9              10
 ................................................................................................................................................................
   1      25.0000         22.3659         19.6319         16.7858         13.8126         10.6935         7.40455         3.91461        0.181458        -3.85447    
   2      25.0000         22.3659         19.6319         16.7858         13.8126         10.6935         7.40455         3.91462        0.181459        -3.85447    
   3      25.0000         22.3659         19.6319         16.7858         13.8126         10.6935         7.40455         3.91462        0.181458        -3.85448    
   4      25.0000         22.3659         19.6319         16.7858         13.8126         10.6935         7.40455         3.91461        0.181458        -3.85447    
   5      25.0000         22.3659         19.6319         16.7858         13.8126         10.6935         7.40455         3.91461        0.181456        -3.85447    
   6      25.0000         22.3659         19.6319         16.7858         13.8126         10.6935         7.40455         3.91461        0.181455        -3.85448    
   7      25.0000         22.3659         19.6319         16.7858         13.8126         10.6935         7.40455         3.91461        0.181457        -3.85447    
   8      25.0000         22.3659         19.6319         16.7858         13.8126         10.6935         7.40455         3.91461        0.181458        -3.85447    
   9      25.0000         22.3659         19.6319         16.7858         13.8126         10.6935         7.40455         3.91462        0.181458        -3.85447    
  10      25.0000         22.3659         19.6319         16.7858         13.8126         10.6935         7.40455         3.91461        0.181458        -3.85447    

 HEAD WILL BE SAVED ON UNIT 1021 AT END OF TIME STEP    1, STRESS PERIOD    2


  VOLUME BUDGET FOR ENTIRE MODEL AT END OF TIME STEP    1, STRESS PERIOD   2
  ---------------------------------------------------------------------------------------------------

     CUMULATIVE VOLUME      L**3       RATES FOR THIS TIME STEP      L**3/T          PACKAGE NAME    
     ------------------                 ------------------------                     ----------------

           IN:                                      IN:
           ---                                      ---
                 CHD =       94407.5903                   CHD =       19402.5197     CHD1                             
        FLOW-JA-FACE =           0.0000          FLOW-JA-FACE =           0.0000     GWF-GWF_1                        

            TOTAL IN =       94407.5903              TOTAL IN =       19402.5197

          OUT:                                     OUT:
          ----                                     ----
                 CHD =           0.0000                   CHD =           0.0000     CHD1                             
        FLOW-JA-FACE =       94407.5949          FLOW-JA-FACE =       19402.5207     GWF-GWF_1                        

           TOTAL OUT =       94407.5949             TOTAL OUT =       19402.5207

            IN - OUT =      -4.5853E-03              IN - OUT =      -1.0180E-03

 PERCENT DISCREPANCY =          -0.00     PERCENT DISCREPANCY =          -0.00




         TIME SUMMARY AT END OF TIME STEP    1 IN STRESS PERIOD    2
                    SECONDS     MINUTES      HOURS       DAYS        YEARS
                    -----------------------------------------------------------
   TIME STEP LENGTH  86400.      1440.0      24.000      1.0000     2.73785E-03
 STRESS PERIOD TIME  86400.      1440.0      24.000      1.0000     2.73785E-03
         TOTAL TIME 1.72800E+05  2880.0      48.000      2.0000     5.47570E-03


end timestep

