                             MODFLOW 6 PROFESSIONAL
                U.S. GEOLOGICAL SURVEY MODULAR HYDROLOGIC MODEL
                  VERSION 6.5.0.dev0 (preliminary) 07/13/2023
                               ***DEVELOP MODE***

        MODFLOW 6 compiled Oct 30 2023 08:23:02 with GCC version 11.3.0

This software is preliminary or provisional and is subject to 
revision. It is being provided to meet the need for timely best 
science. The software has not received final approval by the U.S. 
Geological Survey (USGS). No warranty, expressed or implied, is made 
by the USGS or the U.S. Government as to the functionality of the 
software and related material nor shall the fact of release 
constitute any such warranty. The software is provided on the 
condition that neither the USGS nor the U.S. Government shall be held 
liable for any damages resulting from the authorized or unauthorized 
use of the software.


As a work of the United States Government, this USGS product is 
in the public domain within the United States. You can copy, 
modify, distribute, and perform the work, even for commercial 
purposes, all without asking permission. Additionally, USGS 
waives copyright and related rights in the work worldwide 
through CC0 1.0 Universal Public Domain Dedication 
(https://creativecommons.org/publicdomain/zero/1.0/).

The following GNU Lesser General Public License (LGPL) libraries
are used in this USGS product:

    SPARSKIT version 2.0
      ilut, luson, and qsplit 
      (https://www-users.cse.umn.edu/~saad/software/SPARSKIT/)

    RCM - Reverse Cuthill McKee Ordering
      (https://people.math.sc.edu/Burkardt/f_src/rcm/rcm.html)

    BLAS - Basic Linear Algebra Subprograms Level 1
      (https://people.math.sc.edu/Burkardt/f_src/blas1_d/blas1_d.html)

    SPARSEKIT - Sparse Matrix Utility Package
      amux, dperm, dvperm, rperm, and cperm
      (https://people.sc.fsu.edu/~jburkardt/f77_src/sparsekit/sparsekit.html)

The following BSD-3 License libraries are used in this USGS product:

    Modern Fortran DAG Library
      Copyright (c) 2018, Jacob Williams
      All rights reserved.
      (https://github.com/jacobwilliams/daglib)

The following 2-clause BSD License library is used in this
USGS product:

    PETSc, the Portable, Extensible Toolkit for Scientific
    Computation Library
      Copyright (c) 1991-2021, UChicago Argonne, LLC
      and the PETSc Development Team All rights reserved.
      (https://petsc.org/release/)

MODFLOW 6 compiler options: -cpp -I src/libmf6core.a.p -I src -I ../src -I
src/libmf6_external.a.p -I
/home/mreno/.clone/external/petsc/arch-linux-c-debug/include -I
/home/mreno/.clone/external/petsc/include -I
/home/mreno/.clone/external/petsc/arch-linux-c-debug/lib -I
/home/mreno/miniconda3/envs/modflow6/include -I -fdiagnostics-color=always
-imultiarch x86_64-linux-gnu -D _FILE_OFFSET_BITS=64 -D __linux__ -D
__WITH_PETSC__ -D __WITH_MPI__ -D __WITH_NETCDF__ -mtune=generic
-march=x86-64 -g -O2 -Wall -Wpedantic -Wcharacter-truncation
-Wno-unused-dummy-argument -Wno-intrinsic-shadow -Wno-maybe-uninitialized
-Wno-uninitialized -std=f2008 -fall-intrinsics -fbacktrace -fcheck=all
-ffpe-trap=overflow,zero,invalid -ffpe-summary=overflow
-ffpe-trap=overflow,zero,invalid -fPIC -J src/libmf6core.a.p
-fpre-include=/usr/include/finclude/math-vector-fortran.h

System command used to initiate simulation:
/home/mreno/.clone/usgs/w/netcdf/2/modflow6/bin/mf6

MODFLOW was compiled using uniform precision.

Real Variables
  KIND: 8
  TINY (smallest non-zero value):    2.225074-308
  HUGE (largest value):    1.797693+308
  PRECISION: 15
  SIZE IN BITS: 64

Integer Variables
  KIND: 4
  HUGE (largest value): 2147483647
  SIZE IN BITS: 32

Long Integer Variables
  KIND: 8
  HUGE (largest value): 9223372036854775807
  SIZE IN BITS: 64

Logical Variables
  KIND: 4
  SIZE IN BITS: 32


 OPENED mfsim.nam
 FILE TYPE:NAM6      UNIT 1001   STATUS:OLD                 
 FORMAT:FORMATTED              ACCESS:SEQUENTIAL          
 ACTION:READ                

 # File generated by Flopy version 3.5.0.dev0 on 10/30/2023 at 09:20:40.

 OPENED gwf0.nam
 FILE TYPE:GWF6      UNIT 1002   STATUS:OLD                 
 FORMAT:FORMATTED              ACCESS:SEQUENTIAL          
 ACTION:READ                

 # File generated by Flopy version 3.5.0.dev0 on 10/30/2023 at 09:20:40.

 OPENED gwf0.dis
 FILE TYPE:DIS6      UNIT 1003   STATUS:OLD                 
 FORMAT:FORMATTED              ACCESS:SEQUENTIAL          
 ACTION:READ                

 # File generated by Flopy version 3.5.0.dev0 on 10/30/2023 at 09:20:40.

 OPENED gwf0.npf
 FILE TYPE:NPF6      UNIT 1004   STATUS:OLD                 
 FORMAT:FORMATTED              ACCESS:SEQUENTIAL          
 ACTION:READ                

 # File generated by Flopy version 3.5.0.dev0 on 10/30/2023 at 09:20:40.

 OPENED gwf0.ic
 FILE TYPE:IC6       UNIT 1005   STATUS:OLD                 
 FORMAT:FORMATTED              ACCESS:SEQUENTIAL          
 ACTION:READ                


 OPENED gwf0.oc
 FILE TYPE:OC6       UNIT 1006   STATUS:OLD                 
 FORMAT:FORMATTED              ACCESS:SEQUENTIAL          
 ACTION:READ                


 OPENED gwf0.chd1.chd
 FILE TYPE:CHD6      UNIT 1007   STATUS:OLD                 
 FORMAT:FORMATTED              ACCESS:SEQUENTIAL          
 ACTION:READ                

 # File generated by Flopy version 3.5.0.dev0 on 10/30/2023 at 09:20:40.

 OPENED gwf1.nam
 FILE TYPE:GWF6      UNIT 1008   STATUS:OLD                 
 FORMAT:FORMATTED              ACCESS:SEQUENTIAL          
 ACTION:READ                

 # File generated by Flopy version 3.5.0.dev0 on 10/30/2023 at 09:20:40.

 OPENED gwf1.dis
 FILE TYPE:DIS6      UNIT 1009   STATUS:OLD                 
 FORMAT:FORMATTED              ACCESS:SEQUENTIAL          
 ACTION:READ                

 # File generated by Flopy version 3.5.0.dev0 on 10/30/2023 at 09:20:40.

 OPENED gwf1.npf
 FILE TYPE:NPF6      UNIT 1010   STATUS:OLD                 
 FORMAT:FORMATTED              ACCESS:SEQUENTIAL          
 ACTION:READ                

 # File generated by Flopy version 3.5.0.dev0 on 10/30/2023 at 09:20:40.

 OPENED gwf1.ic
 FILE TYPE:IC6       UNIT 1011   STATUS:OLD                 
 FORMAT:FORMATTED              ACCESS:SEQUENTIAL          
 ACTION:READ                


 OPENED gwf1.oc
 FILE TYPE:OC6       UNIT 1012   STATUS:OLD                 
 FORMAT:FORMATTED              ACCESS:SEQUENTIAL          
 ACTION:READ                


 OPENED gwf1.chd2.chd
 FILE TYPE:CHD6      UNIT 1013   STATUS:OLD                 
 FORMAT:FORMATTED              ACCESS:SEQUENTIAL          
 ACTION:READ                

 # File generated by Flopy version 3.5.0.dev0 on 10/30/2023 at 09:20:40.

 READING SIMULATION OPTIONS
    MAXIMUM NUMBER OF ERRORS THAT WILL BE STORED IS 1000
 END OF SIMULATION OPTIONS

 READING SIMULATION TIMING

 OPENED npf02_hrewetb.tdis
 FILE TYPE:TDIS   UNIT 1014   STATUS:OLD                 
 FORMAT:FORMATTED              ACCESS:SEQUENTIAL          
 ACTION:READ                


 TDIS -- TEMPORAL DISCRETIZATION PACKAGE,
 VERSION 1 : 11/13/2014 - INPUT READ FROM UNIT 1014
 # File generated by Flopy version 3.5.0.dev0 on 10/30/2023 at 09:20:40.
 PROCESSING TDIS OPTIONS
    SIMULATION TIME UNIT IS DAYS
 END OF TDIS OPTIONS
 PROCESSING TDIS DIMENSIONS
    2 STRESS PERIOD(S) IN SIMULATION
 END OF TDIS DIMENSIONS
 PROCESSING TDIS PERIODDATA


 STRESS PERIOD     LENGTH       TIME STEPS     MULTIPLIER FOR DELT
 ----------------------------------------------------------------------------
        1         1.000000          1                    1.000
        2         1.000000          1                    1.000
 END OF TDIS PERIODDATA
 END OF SIMULATION TIMING

 READING SIMULATION MODELS
    GWF6 model 1 will be created
    GWF6 model 2 will be created
 END OF SIMULATION MODELS

 READING SIMULATION EXCHANGES
    GWF6-GWF6 exchange 1 will be created to connect model 1 with model 2
 END OF SIMULATION EXCHANGES

 READING SOLUTIONGROUP

 Creating solution: SLN_1           

 OPENED npf02_hrewetb.ims
 FILE TYPE:IMS   UNIT 1017   STATUS:OLD                 
 FORMAT:FORMATTED              ACCESS:SEQUENTIAL          
 ACTION:READ                

 END OF SOLUTIONGROUP

 Creating exchange: GWF-GWF_1       

 OPENED npf02_hrewetb.gwfgwf
 FILE TYPE:GWF-GWF   UNIT 1018   STATUS:OLD                 
 FORMAT:FORMATTED              ACCESS:SEQUENTIAL          
 ACTION:READ                

 # File generated by Flopy version 3.5.0.dev0 on 10/30/2023 at 09:20:40.
 PROCESSING GWF-GWF EXCHANGE OPTIONS
 END OF GWF-GWF EXCHANGE OPTIONS
 PROCESSING EXCHANGE DIMENSIONS
    NEXG = 10
 END OF EXCHANGE DIMENSIONS
 PROCESSING EXCHANGEDATA
 END OF EXCHANGEDATA

PROCESSING MODEL CONNECTIONS
END OF MODEL CONNECTIONS

 IMS -- ITERATIVE MODEL SOLUTION PACKAGE, VERSION 6, 4/28/2017
         INPUT READ FROM UNIT 1017
 # File generated by Flopy version 3.5.0.dev0 on 10/30/2023 at 09:20:40.

 PROCESSING IMS OPTIONS

 OPENED npf02_hrewetb.outer.ims.csv
 FILE TYPE:CSV_OUTER_OUTPUT   UNIT 1025   STATUS:REPLACE             
 FORMAT:FORMATTED              ACCESS:SEQUENTIAL          
 ACTION:READWRITE           

    CSV OUTPUT WILL BE SAVED TO FILE: npf02_hrewetb.outer.ims.csv
    OPENED ON UNIT:    1025

 OPENED npf02_hrewetb.inner.ims.csv
 FILE TYPE:CSV_INNER_OUTPUT   UNIT 1026   STATUS:REPLACE             
 FORMAT:FORMATTED              ACCESS:SEQUENTIAL          
 ACTION:READWRITE           

    CSV OUTPUT WILL BE SAVED TO FILE: npf02_hrewetb.inner.ims.csv
    OPENED ON UNIT:    1026
 END OF IMS OPTIONS

 PROCESSING IMS NONLINEAR
 END OF IMS NONLINEAR DATA
 ***UNDER-RELAXATION WILL NOT BE USED***


 PROCESSING LINEAR DATA
 END OF LINEAR DATA
 ***IMS LINEAR SOLVER WILL BE USED***

 IMSLINEAR -- UNSTRUCTURED LINEAR SOLUTION PACKAGE, VERSION 8, 04/28/2017
 A symmetric matrix will be solved

 OUTER ITERATION CONVERGENCE CRITERION    (DVCLOSE) =    0.100000E+00
 MAXIMUM NUMBER OF OUTER ITERATIONS        (MXITER) = 1000
 SOLVER PRINTOUT INDEX                     (IPRIMS) = 2
 NONLINEAR ITERATION METHOD            (NONLINMETH) = 0
 LINEAR SOLUTION METHOD                   (LINMETH) = 1

       SOLUTION BY THE        CONJUGATE-GRADIENT       METHOD
 ------------------------------------------------------------------
 MAXIMUM OF 1000 CALLS OF SOLUTION ROUTINE
 MAXIMUM OF 100 INTERNAL ITERATIONS PER CALL TO SOLUTION ROUTINE
 LINEAR ACCELERATION METHOD            = CG        
 MATRIX PRECONDITIONING TYPE           = MOD. INCOMPLETE LU  
 MATRIX SCALING APPROACH               = NO SCALING          
 MATRIX REORDERING APPROACH            = ORIGINAL ORDERING        
 NUMBER OF ORTHOGONALIZATIONS          = 0
 HEAD CHANGE CRITERION FOR CLOSURE     =    0.10000E+00
 RESIDUAL CHANGE CRITERION FOR CLOSURE =    0.10000E-01
 RESIDUAL CONVERGENCE OPTION           = 0
 RESIDUAL CONVERGENCE NORM             = INFINITY NORM   
 RELAXATION FACTOR                     =    0.10000E+01




    Solving:  Stress period:     1    Time step:     1

1
                            STRESS PERIOD NO. 1, LENGTH =   1.000000    
                            -----------------------------------------------
                            NUMBER OF TIME STEPS = 1
                            MULTIPLIER FOR DELT =     1.000
                            INITIAL TIME STEP SIZE =   1.000000    

 SLN_1 OUTER ITERATION SUMMARY
 ----------------------------------------------------------------------------------------------------------
                                OUTER      INNER                    STEP   MAXIMUM CHANGE MODEL-(CELLID) OR
 OUTER ITERATION STEP       ITERATION  ITERATION  MAXIMUM CHANGE SUCCESS             MODEL-PACKAGE-(NUMBER)
 ----------------------------------------------------------------------------------------------------------
 Model                              1         13       134.48276                             1_GWF-(1,10,2)
 Model                              2         14       43.708855                              2_GWF-(1,1,1)
 Model                              3         14      -8.4140618                              1_GWF-(1,1,9)
 Model                              4         12      -3.0395632                              2_GWF-(1,1,3)
 Model                              5         11      0.45863372                              1_GWF-(1,2,9)
 Model                              6         10      0.16453594                              2_GWF-(1,3,2)
 Model                              7          9 -2.50280148E-02       *                      1_GWF-(1,3,9)
 ----------------------------------------------------------------------------------------------------------


 7 CALLS TO NUMERICAL SOLUTION IN TIME STEP 1 STRESS PERIOD 1
 83 TOTAL ITERATIONS

 SLN_1 INNER ITERATION SUMMARY
 --------------------------------------------------------------------------------------------------------------------------------------
      TOTAL      OUTER      INNER                                                            MAXIMUM                                   
  ITERATION  ITERATION  ITERATION  MAXIMUM CHANGE      MAXIMUM CHANGE MODEL-(CELLID)        RESIDUAL    MAXIMUM RESIDUAL MODEL-(CELLID)
 --------------------------------------------------------------------------------------------------------------------------------------
          1          1          1       132.58403                     1_GWF-(1,10,2)       1491.6296                     2_GWF-(1,10,2)
          2          1          2       31.029958                      1_GWF-(1,1,9)      -815.63990                      2_GWF-(1,1,2)
          3          1          3      -12.212677                     1_GWF-(1,10,7)      -462.40850                      2_GWF-(1,1,4)
          4          1          4      -2.9500675                     1_GWF-(1,10,4)      -146.41039                      2_GWF-(1,1,4)
          5          1          5      0.96711845                     1_GWF-(1,2,10)      -44.804306                      2_GWF-(1,2,2)
          6          1          6      0.32737920                      2_GWF-(1,2,2)       14.167756                     1_GWF-(1,10,2)
          7          1          7      0.11039513                      1_GWF-(1,4,9)       7.3195357                     1_GWF-(1,10,2)
          8          1          8 -2.35236078E-02                      1_GWF-(1,1,4)       1.8401728                     1_GWF-(1,10,2)
          9          1          9  1.03060542E-02                      1_GWF-(1,4,7)      0.57360373                     1_GWF-(1,10,2)
         10          1         10 -2.46969711E-03                     2_GWF-(1,10,3)      0.12222419                     1_GWF-(1,10,2)
         11          1         11  9.37818474E-04                      2_GWF-(1,8,1)  4.96599844E-02                      1_GWF-(1,7,8)
         12          1         12 -2.03964624E-04                      1_GWF-(1,7,8)  1.17759869E-02                      1_GWF-(1,2,4)
         13          1         13 -5.56447829E-05                      1_GWF-(1,2,4)  3.29973075E-03                      1_GWF-(1,6,9)
         14          2          1       37.540029                     1_GWF-(1,3,10)       5282.9250                      1_GWF-(1,1,5)
         15          2          2       18.201822                      2_GWF-(1,1,2)      -3417.1980                     1_GWF-(1,10,5)
         16          2          3       6.9001340                      2_GWF-(1,1,4)      -2258.8339                     1_GWF-(1,10,3)
         17          2          4       2.2590026                     1_GWF-(1,8,10)      -902.90298                     1_GWF-(1,10,2)
         18          2          5      0.85619376                      2_GWF-(1,3,2)      -545.18192                     1_GWF-(1,10,2)
         19          2          6     -0.40664137                      2_GWF-(1,3,1)      -207.00577                     1_GWF-(1,10,2)
         20          2          7      0.10320968                      2_GWF-(1,5,3)      -57.709167                      1_GWF-(1,9,4)
         21          2          8 -4.29648006E-02                      2_GWF-(1,2,2)      -22.986114                      1_GWF-(1,9,4)
         22          2          9  1.26910133E-02                      2_GWF-(1,3,3)      -5.7317512                      1_GWF-(1,8,6)
         23          2         10 -2.07388535E-03                      2_GWF-(1,1,2)     -0.97792198                      1_GWF-(1,8,5)
         24          2         11  7.71858599E-04                      2_GWF-(1,2,3)      0.37191505                      1_GWF-(1,1,3)
         25          2         12 -1.77862201E-04                      2_GWF-(1,1,2)      0.11554603                      1_GWF-(1,1,3)
         26          2         13  7.02604886E-05                     2_GWF-(1,10,2)  2.53283114E-02                      1_GWF-(1,7,5)
         27          2         14  2.47813874E-05                      2_GWF-(1,2,3) -6.97567130E-03                      1_GWF-(1,6,8)
         28          3          1      -9.1250098                     1_GWF-(1,7,10)      -3604.7090                     2_GWF-(1,10,4)
         29          3          2      -4.3261561                      2_GWF-(1,1,1)       2323.6452                      2_GWF-(1,1,3)
         30          3          3       3.0227758                     2_GWF-(1,10,4)      -841.09908                      2_GWF-(1,2,3)
         31          3          4       1.6056812                     2_GWF-(1,10,4)       365.81025                      2_GWF-(1,2,2)
         32          3          5      0.37736810                     2_GWF-(1,10,2)      -128.22647                      2_GWF-(1,9,4)
         33          3          6      0.10603675                      2_GWF-(1,3,1)      -71.180224                      2_GWF-(1,9,4)
         34          3          7  6.67043617E-02                      2_GWF-(1,9,4)      -18.871401                      2_GWF-(1,2,1)
         35          3          8  1.59600788E-02                      2_GWF-(1,2,1)       6.1328467                      2_GWF-(1,3,1)
         36          3          9 -4.44696477E-03                      2_GWF-(1,4,3)      -2.0201798                     2_GWF-(1,10,3)
         37          3         10  1.37161678E-03                     2_GWF-(1,10,3)     -0.58635828                     2_GWF-(1,10,3)
         38          3         11  3.64201442E-04                      2_GWF-(1,7,4)      0.13817402                      1_GWF-(1,3,7)
         39          3         12  9.01144689E-05                     2_GWF-(1,10,3)  5.55414565E-02                      1_GWF-(1,2,2)
         40          3         13 -2.94771845E-05                      2_GWF-(1,1,4)  1.13925122E-02                      2_GWF-(1,2,3)
         41          3         14 -7.19606697E-06                      2_GWF-(1,2,3) -2.96816898E-03                      1_GWF-(1,3,3)
         42          4          1      -2.4143881                      2_GWF-(1,4,2)       871.06319                      2_GWF-(1,1,3)
         43          4          2      -1.1896468                      2_GWF-(1,1,3)      -324.01692                     1_GWF-(1,1,10)
         44          4          3     -0.44644213                     1_GWF-(1,10,9)       186.67267                      2_GWF-(1,2,1)
         45          4          4     -0.20098468                      2_GWF-(1,5,4)       76.958285                      2_GWF-(1,2,2)
         46          4          5 -5.80056591E-02                      2_GWF-(1,8,4)      -20.549390                      2_GWF-(1,2,1)
         47          4          6 -1.56969924E-02                      2_GWF-(1,9,1)       6.4857054                      2_GWF-(1,3,1)
         48          4          7  5.20621142E-03                     1_GWF-(1,5,10)       2.5514552                     2_GWF-(1,10,3)
         49          4          8 -2.07278074E-03                      2_GWF-(1,8,3)      0.96669073                     1_GWF-(1,10,2)
         50          4          9 -8.20306143E-04                      1_GWF-(1,8,8)     -0.49428828                     1_GWF-(1,3,10)
         51          4         10  1.96392716E-04                      1_GWF-(1,5,6)     -0.11483939                      1_GWF-(1,4,8)
         52          4         11 -5.22262263E-05                      2_GWF-(1,5,2) -3.80425015E-02                      1_GWF-(1,2,3)
         53          4         12 -1.86645969E-05                      2_GWF-(1,3,3) -9.20788261E-03                      1_GWF-(1,3,3)
         54          5          1      0.48722384                     1_GWF-(1,8,10)      -160.18468                      2_GWF-(1,1,1)
         55          5          2      0.24143580                      2_GWF-(1,1,1)      -100.35210                      2_GWF-(1,1,3)
         56          5          3     -0.16309448                     2_GWF-(1,10,3)      -33.853191                      1_GWF-(1,2,9)
         57          5          4 -7.43845556E-02                     2_GWF-(1,10,3)      -17.178652                      2_GWF-(1,2,1)
         58          5          5 -1.86101826E-02                     2_GWF-(1,10,1)       6.8682638                      2_GWF-(1,9,4)
         59          5          6 -5.07723582E-03                     1_GWF-(1,3,10)       3.2997725                      2_GWF-(1,9,4)
         60          5          7 -3.23810565E-03                      2_GWF-(1,9,4)      0.96859618                      2_GWF-(1,2,1)
         61          5          8 -8.23570318E-04                      2_GWF-(1,2,1)     -0.26493391                      2_GWF-(1,3,1)
         62          5          9  2.14668780E-04                      2_GWF-(1,4,3)      0.10904161                     2_GWF-(1,10,3)
         63          5         10 -7.78776358E-05                     2_GWF-(1,10,3)  2.58465211E-02                     2_GWF-(1,10,3)
         64          5         11 -1.69368181E-05                      2_GWF-(1,7,4)  7.07044844E-03                      1_GWF-(1,5,2)
         65          6          1      0.13047618                      2_GWF-(1,4,2)      -43.360723                      2_GWF-(1,1,3)
         66          6          2  6.35373862E-02                      2_GWF-(1,1,3)       18.481533                     1_GWF-(1,1,10)
         67          6          3  2.42355570E-02                     1_GWF-(1,10,9)      -9.8843232                      2_GWF-(1,2,1)
         68          6          4  1.04478550E-02                      2_GWF-(1,5,4)      -3.7808295                      2_GWF-(1,2,2)
         69          6          5  3.00961988E-03                      2_GWF-(1,8,4)       1.2341571                     1_GWF-(1,2,10)
         70          6          6  8.66491607E-04                      2_GWF-(1,9,1)      0.39200811                      2_GWF-(1,2,1)
         71          6          7  3.40380852E-04                      2_GWF-(1,5,3)      0.15694727                      2_GWF-(1,2,1)
         72          6          8  1.30704428E-04                      2_GWF-(1,8,3) -5.10393529E-02                      1_GWF-(1,2,7)
         73          6          9  4.65373778E-05                      1_GWF-(1,8,8)  2.69060719E-02                     1_GWF-(1,3,10)
         74          6         10 -1.12039109E-05                      1_GWF-(1,5,6) -5.91805717E-03                      1_GWF-(1,3,5)
         75          7          1 -2.64493796E-02                     1_GWF-(1,8,10)       9.0019667                      2_GWF-(1,1,1)
         76          7          2 -1.32546849E-02                      2_GWF-(1,1,1)       5.4278359                      2_GWF-(1,1,2)
         77          7          3  8.96524471E-03                     2_GWF-(1,10,3)       1.8884340                      1_GWF-(1,2,9)
         78          7          4  3.95160554E-03                     2_GWF-(1,10,3)      0.90299856                      2_GWF-(1,2,1)
         79          7          5  9.98543392E-04                     2_GWF-(1,10,1)     -0.35868346                      2_GWF-(1,9,4)
         80          7          6  2.59978314E-04                     1_GWF-(1,3,10)     -0.16482565                      2_GWF-(1,9,4)
         81          7          7  1.66975417E-04                      2_GWF-(1,9,4) -5.20316281E-02                      2_GWF-(1,2,1)
         82          7          8  4.54015381E-05                      2_GWF-(1,2,1)  1.41162490E-02                      2_GWF-(1,3,1)
         83          7          9 -1.18355499E-05                      2_GWF-(1,4,3) -6.12347873E-03                     2_GWF-(1,10,3)
 --------------------------------------------------------------------------------------------------------------------------------------



    Solving:  Stress period:     2    Time step:     1

1
                            STRESS PERIOD NO. 2, LENGTH =   1.000000    
                            -----------------------------------------------
                            NUMBER OF TIME STEPS = 1
                            MULTIPLIER FOR DELT =     1.000
                            INITIAL TIME STEP SIZE =   1.000000    

 SLN_1 OUTER ITERATION SUMMARY
 ----------------------------------------------------------------------------------------------------------
                                OUTER      INNER                    STEP   MAXIMUM CHANGE MODEL-(CELLID) OR
 OUTER ITERATION STEP       ITERATION  ITERATION  MAXIMUM CHANGE SUCCESS             MODEL-PACKAGE-(NUMBER)
 ----------------------------------------------------------------------------------------------------------
 Model                              1         14      -73.373168                             1_GWF-(1,10,2)
 Model                              2         12      -6.5058946                              2_GWF-(1,1,4)
 Model                              3         11       1.4731404                             1_GWF-(1,7,10)
 Model                              4         10      0.31046228                              2_GWF-(1,3,3)
 Model                              5          9     -0.10096173                              2_GWF-(1,1,1)
 Model                              6          8 -1.54404485E-02       *                      2_GWF-(1,5,3)
 ----------------------------------------------------------------------------------------------------------


 6 CALLS TO NUMERICAL SOLUTION IN TIME STEP 1 STRESS PERIOD 2
 64 TOTAL ITERATIONS

 SLN_1 INNER ITERATION SUMMARY
 --------------------------------------------------------------------------------------------------------------------------------------
      TOTAL      OUTER      INNER                                                            MAXIMUM                                   
  ITERATION  ITERATION  ITERATION  MAXIMUM CHANGE      MAXIMUM CHANGE MODEL-(CELLID)        RESIDUAL    MAXIMUM RESIDUAL MODEL-(CELLID)
 --------------------------------------------------------------------------------------------------------------------------------------
          1          1          1      -70.516459                     1_GWF-(1,10,2)       8275.0425                      1_GWF-(1,1,7)
          2          1          2      -24.734832                     1_GWF-(1,1,10)       4402.2133                      2_GWF-(1,1,2)
          3          1          3      -12.673230                      2_GWF-(1,1,3)       1901.1507                      2_GWF-(1,1,4)
          4          1          4      -2.9750805                      2_GWF-(1,1,4)      -717.40430                     1_GWF-(1,10,2)
          5          1          5     -0.61045833                      2_GWF-(1,3,2)      -303.63999                     1_GWF-(1,10,2)
          6          1          6     -0.23248936                      1_GWF-(1,4,9)      -167.51372                     1_GWF-(1,10,2)
          7          1          7 -8.88490717E-02                      2_GWF-(1,2,3)      -41.050917                      1_GWF-(1,9,5)
          8          1          8 -2.01456629E-02                     2_GWF-(1,10,2)      -11.970610                      1_GWF-(1,9,4)
          9          1          9  5.47228294E-03                      1_GWF-(1,8,9)      -4.0762506                      1_GWF-(1,9,4)
         10          1         10 -1.48942026E-03                     1_GWF-(1,9,10)       1.0013990                      1_GWF-(1,8,4)
         11          1         11 -4.64077974E-04                      2_GWF-(1,8,2)     -0.42612774                      1_GWF-(1,8,5)
         12          1         12 -1.12867312E-04                      1_GWF-(1,3,6) -8.33579635E-02                      1_GWF-(1,7,7)
         13          1         13 -2.59612716E-05                      1_GWF-(1,2,8)  3.00119382E-02                      1_GWF-(1,7,5)
         14          1         14 -8.84449953E-06                     2_GWF-(1,10,3) -5.43351558E-03                      1_GWF-(1,7,6)
         15          2          1      -5.8930365                      2_GWF-(1,1,2)      -462.34201                      1_GWF-(1,1,6)
         16          2          2      -1.7283133                     2_GWF-(1,10,1)      -265.76177                      2_GWF-(1,1,1)
         17          2          3     -0.79526832                     1_GWF-(1,10,7)       120.38669                     1_GWF-(1,10,4)
         18          2          4     -0.26915894                     2_GWF-(1,10,3)       51.334892                     1_GWF-(1,10,3)
         19          2          5  5.55385730E-02                     1_GWF-(1,2,10)       19.130957                     1_GWF-(1,10,2)
         20          2          6  2.14351281E-02                      2_GWF-(1,2,2)       4.9239861                     1_GWF-(1,10,2)
         21          2          7  4.93097601E-03                      1_GWF-(1,3,9)       2.1426618                     1_GWF-(1,10,2)
         22          2          8 -1.94236321E-03                     1_GWF-(1,5,10)      0.84280285                      1_GWF-(1,9,4)
         23          2          9 -7.05567184E-04                      1_GWF-(1,8,8)      0.30170043                      1_GWF-(1,9,4)
         24          2         10  2.21250670E-04                      1_GWF-(1,9,9) -6.99227747E-02                      1_GWF-(1,8,4)
         25          2         11 -6.01612760E-05                      1_GWF-(1,1,5)  2.54912470E-02                      1_GWF-(1,8,5)
         26          2         12  1.40503053E-05                      1_GWF-(1,3,6)  4.78026749E-03                      1_GWF-(1,7,7)
         27          3          1       1.3453895                     1_GWF-(1,5,10)       166.59689                     2_GWF-(1,10,4)
         28          3          2      0.55020084                      2_GWF-(1,1,2)      -115.31132                      2_GWF-(1,1,3)
         29          3          3      0.24673602                      2_GWF-(1,1,3)       39.257725                     2_GWF-(1,10,4)
         30          3          4     -0.10268172                     2_GWF-(1,10,3)      -18.751312                      2_GWF-(1,2,2)
         31          3          5  3.46971719E-02                      2_GWF-(1,2,1)      -6.4269456                      2_GWF-(1,2,2)
         32          3          6 -1.04956833E-02                      2_GWF-(1,3,1)      -4.2209652                      1_GWF-(1,9,5)
         33          3          7 -5.49971880E-03                      2_GWF-(1,9,4)     -0.88129961                      1_GWF-(1,9,4)
         34          3          8 -1.20055357E-03                      2_GWF-(1,2,1)      0.25028696                      1_GWF-(1,3,9)
         35          3          9  3.75355562E-04                      2_GWF-(1,3,3) -9.88736688E-02                      1_GWF-(1,8,6)
         36          3         10 -9.64812839E-05                      2_GWF-(1,1,2)  2.58763706E-02                     2_GWF-(1,10,3)
         37          3         11  2.74101022E-05                      2_GWF-(1,9,4) -7.50409355E-03                      1_GWF-(1,3,7)
         38          4          1      0.25772787                      2_GWF-(1,3,3)       31.129148                      1_GWF-(1,1,9)
         39          4          2      0.14967653                     2_GWF-(1,10,3)       23.973468                      2_GWF-(1,1,1)
         40          4          3  6.60488935E-02                     2_GWF-(1,10,1)      -11.022131                      2_GWF-(1,2,2)
         41          4          4  1.69008239E-02                     1_GWF-(1,10,7)       3.6374571                     1_GWF-(1,2,10)
         42          4          5  6.97353496E-03                      2_GWF-(1,9,4)       1.2475880                     1_GWF-(1,2,10)
         43          4          6  2.11964488E-03                      1_GWF-(1,9,9)      0.66160489                      2_GWF-(1,2,1)
         44          4          7  1.07091040E-03                      2_GWF-(1,9,2)      0.15010141                      1_GWF-(1,3,9)
         45          4          8  1.94380840E-04                      2_GWF-(1,7,3)  5.43724125E-02                     1_GWF-(1,3,10)
         46          4          9  8.49878695E-05                      1_GWF-(1,2,8) -1.53140887E-02                      1_GWF-(1,3,7)
         47          4         10 -2.28848400E-05                      2_GWF-(1,3,1)  6.19330500E-03                      1_GWF-(1,2,3)
         48          5          1 -8.59489923E-02                     1_GWF-(1,4,10)       11.482072                      2_GWF-(1,1,2)
         49          5          2 -3.85509283E-02                      2_GWF-(1,1,2)       7.0484937                      2_GWF-(1,1,3)
         50          5          3 -1.65875408E-02                      2_GWF-(1,1,3)       2.5358630                     1_GWF-(1,2,10)
         51          5          4 -5.23817617E-03                      1_GWF-(1,7,9)       1.1883896                      2_GWF-(1,2,1)
         52          5          5 -2.29143520E-03                      2_GWF-(1,2,1)     -0.40048148                      2_GWF-(1,9,4)
         53          5          6 -7.16110901E-04                      1_GWF-(1,5,9)     -0.24301516                      2_GWF-(1,9,4)
         54          5          7 -3.44014055E-04                      2_GWF-(1,5,3) -4.63728620E-02                      2_GWF-(1,2,1)
         55          5          8  6.25973649E-05                      2_GWF-(1,2,1) -1.73497960E-02                      1_GWF-(1,3,9)
         56          5          9 -1.98390654E-05                      2_GWF-(1,3,3) -4.76467754E-03                     2_GWF-(1,10,3)
         57          6          1 -1.37386736E-02                      2_GWF-(1,2,3)      -2.1849090                     1_GWF-(1,1,10)
         58          6          2 -8.98983926E-03                     2_GWF-(1,10,3)      -1.5423489                      2_GWF-(1,1,2)
         59          6          3 -4.51586167E-03                     2_GWF-(1,10,1)      0.62298768                      2_GWF-(1,2,2)
         60          6          4 -1.30071642E-03                     1_GWF-(1,10,8)      0.24725700                      2_GWF-(1,9,4)
         61          6          5 -4.69086421E-04                      2_GWF-(1,9,4) -8.96106567E-02                     1_GWF-(1,2,10)
         62          6          6 -1.60768225E-04                      1_GWF-(1,9,9) -3.86998819E-02                      1_GWF-(1,9,4)
         63          6          7 -6.42944616E-05                      2_GWF-(1,9,3)  1.06059855E-02                     1_GWF-(1,2,10)
         64          6          8 -1.31410573E-05                      2_GWF-(1,7,3) -3.66722428E-03                     1_GWF-(1,3,10)
 --------------------------------------------------------------------------------------------------------------------------------------




 Solution SLN_1 summary
 ----------------------------------------------------------------------
 Total formulate time:  0.80399999999999916E-3 seconds
 Total solution time:   0.54500000000000381E-3 seconds


 MEMORY MANAGER TOTAL STORAGE BY DATA TYPE, IN MEGABYTES
 -------------------------------
                    ALLOCATED   
 DATA TYPE           MEMORY     
 -------------------------------
 Character        1.07110000E-02
 Logical          6.80000000E-05
 Integer          2.0402720     
 Real             3.2714160     
 -------------------------------
 Total            5.3224670     
 Virtual          0.0000000     
 -------------------------------



 Run end date and time (yyyy/mm/dd hh:mm:ss): 2023/10/30  9:20:40
 Elapsed run time:  0.022 Seconds
 Normal termination of simulation.
