netcdf uzf_3lay_wc_chk {
dimensions:
	LINELENGTH = 300 ;
	LENAUXNAME = 16 ;
	LENBOUNDNAME = 40 ;
	NPER = 6 ;
	NLAY = 3 ;
	NROW = 1 ;
	NCOL = 10 ;
	NCPL = 10 ;
	NCELLDIM = 3 ;
	ghb_0_maxbound = 3 ;
	ghb_0_niper = 2 ;
variables:
	int dis_nlay ;
		dis_nlay:mf6_input = "DIS6:UZF_3LAY_WC_CHK/DIS/NLAY" ;
	int dis_nrow ;
		dis_nrow:mf6_input = "DIS6:UZF_3LAY_WC_CHK/DIS/NROW" ;
	int dis_ncol ;
		dis_ncol:mf6_input = "DIS6:UZF_3LAY_WC_CHK/DIS/NCOL" ;
	double dis_delr(NCOL) ;
		dis_delr:_FillValue = 3.e+30 ;
		dis_delr:mf6_input = "DIS6:UZF_3LAY_WC_CHK/DIS/DELR" ;
	double dis_delc(NROW) ;
		dis_delc:_FillValue = 3.e+30 ;
		dis_delc:mf6_input = "DIS6:UZF_3LAY_WC_CHK/DIS/DELC" ;
	double dis_top(NROW, NCOL) ;
		dis_top:_FillValue = 3.e+30 ;
		dis_top:mf6_input = "DIS6:UZF_3LAY_WC_CHK/DIS/TOP" ;
	double dis_botm(NLAY, NROW, NCOL) ;
		dis_botm:_FillValue = 3.e+30 ;
		dis_botm:mf6_input = "DIS6:UZF_3LAY_WC_CHK/DIS/BOTM" ;
	int npf_save_flows ;
		npf_save_flows:mf6_input = "NPF6:UZF_3LAY_WC_CHK/NPF/SAVE_FLOWS" ;
	int npf_icelltype(NLAY, NROW, NCOL) ;
		npf_icelltype:_FillValue = -2147483647 ;
		npf_icelltype:mf6_input = "NPF6:UZF_3LAY_WC_CHK/NPF/ICELLTYPE" ;
	double npf_k(NLAY, NROW, NCOL) ;
		npf_k:_FillValue = 3.e+30 ;
		npf_k:mf6_input = "NPF6:UZF_3LAY_WC_CHK/NPF/K" ;
	double npf_k33(NLAY, NROW, NCOL) ;
		npf_k33:_FillValue = 3.e+30 ;
		npf_k33:mf6_input = "NPF6:UZF_3LAY_WC_CHK/NPF/K33" ;
	int ghb_0_print_flows ;
		ghb_0_print_flows:mf6_input = "GHB6:UZF_3LAY_WC_CHK/GHB_0/PRINT_FLOWS" ;
	int ghb_0_maxbound ;
		ghb_0_maxbound:mf6_input = "GHB6:UZF_3LAY_WC_CHK/GHB_0/MAXBOUND" ;
	int ghb_0_iper(ghb_0_niper) ;
		ghb_0_iper:mf6_input = "GHB6:UZF_3LAY_WC_CHK/GHB_0/IPER" ;
	int ghb_0_cellid(ghb_0_niper, ghb_0_maxbound, NCELLDIM) ;
		ghb_0_cellid:_FillValue = -2147483647 ;
		ghb_0_cellid:mf6_input = "GHB6:UZF_3LAY_WC_CHK/GHB_0/CELLID" ;
	double ghb_0_bhead(ghb_0_niper, ghb_0_maxbound) ;
		ghb_0_bhead:_FillValue = 3.e+30 ;
		ghb_0_bhead:mf6_input = "GHB6:UZF_3LAY_WC_CHK/GHB_0/BHEAD" ;
	double ghb_0_cond(ghb_0_niper, ghb_0_maxbound) ;
		ghb_0_cond:_FillValue = 3.e+30 ;
		ghb_0_cond:mf6_input = "GHB6:UZF_3LAY_WC_CHK/GHB_0/COND" ;

// global attributes:
		:description = "MODFLOW 6 NetCDF4 file prototype" ;
		:history = "Created Fri Oct 27 12:48:39 2023" ;
		:source = "mf6netcdf4.py" ;
		:mf6_modeltype = "GWF6" ;
		:mf6_modelname = "UZF_3LAY_WC_CHK" ;
		:Conventions = "CF-1.8" ;
data:

 dis_nlay = 3 ;

 dis_nrow = 1 ;

 dis_ncol = 10 ;

 dis_delr = 1, 1, 1, 1, 1, 1, 1, 1, 1, 1 ;

 dis_delc = 1 ;

 dis_top =
  0, 0, 0, 0, 0, 0, 0, 0, 0, 0 ;

 dis_botm =
  -5, -5, -5, -5, -5, -5, -5, -5, -5, -5,
  -20, -20, -20, -20, -20, -20, -20, -20, -20, -20,
  -30, -30, -30, -30, -30, -30, -30, -30, -30, -30 ;

 npf_save_flows = 1 ;

 npf_icelltype =
  1, 1, 1, 1, 1, 1, 1, 1, 1, 1,
  1, 1, 1, 1, 1, 1, 1, 1, 1, 1,
  1, 1, 1, 1, 1, 1, 1, 1, 1, 1 ;

 npf_k =
  100, 100, 100, 100, 100, 100, 100, 100, 100, 100,
  100, 100, 100, 100, 100, 100, 100, 100, 100, 100,
  100, 100, 100, 100, 100, 100, 100, 100, 100, 100 ;

 npf_k33 =
  10, 10, 10, 10, 10, 10, 10, 10, 10, 10,
  10, 10, 10, 10, 10, 10, 10, 10, 10, 10,
  10, 10, 10, 10, 10, 10, 10, 10, 10, 10 ;

 ghb_0_print_flows = 1 ;

 ghb_0_maxbound = 3 ;

 ghb_0_iper = 1, 4 ;

 ghb_0_cellid =
  3, 1, 1,
  3, 1, 10,
  _, _, _,
  3, 1, 1,
  3, 1, 10,
  _, _, _ ;

 ghb_0_bhead =
  -25.5, -25.5, _,
  -10.5, -10.5, _ ;

 ghb_0_cond =
  1000, 1000, _,
  1000, 1000, _ ;
}
