                             MODFLOW 6 PROFESSIONAL
                U.S. GEOLOGICAL SURVEY MODULAR HYDROLOGIC MODEL
                  VERSION 6.5.0.dev0 (preliminary) 07/13/2023
                               ***DEVELOP MODE***

        MODFLOW 6 compiled Oct 30 2023 08:23:02 with GCC version 11.3.0

This software is preliminary or provisional and is subject to 
revision. It is being provided to meet the need for timely best 
science. The software has not received final approval by the U.S. 
Geological Survey (USGS). No warranty, expressed or implied, is made 
by the USGS or the U.S. Government as to the functionality of the 
software and related material nor shall the fact of release 
constitute any such warranty. The software is provided on the 
condition that neither the USGS nor the U.S. Government shall be held 
liable for any damages resulting from the authorized or unauthorized 
use of the software.


As a work of the United States Government, this USGS product is 
in the public domain within the United States. You can copy, 
modify, distribute, and perform the work, even for commercial 
purposes, all without asking permission. Additionally, USGS 
waives copyright and related rights in the work worldwide 
through CC0 1.0 Universal Public Domain Dedication 
(https://creativecommons.org/publicdomain/zero/1.0/).

The following GNU Lesser General Public License (LGPL) libraries
are used in this USGS product:

    SPARSKIT version 2.0
      ilut, luson, and qsplit 
      (https://www-users.cse.umn.edu/~saad/software/SPARSKIT/)

    RCM - Reverse Cuthill McKee Ordering
      (https://people.math.sc.edu/Burkardt/f_src/rcm/rcm.html)

    BLAS - Basic Linear Algebra Subprograms Level 1
      (https://people.math.sc.edu/Burkardt/f_src/blas1_d/blas1_d.html)

    SPARSEKIT - Sparse Matrix Utility Package
      amux, dperm, dvperm, rperm, and cperm
      (https://people.sc.fsu.edu/~jburkardt/f77_src/sparsekit/sparsekit.html)

The following BSD-3 License libraries are used in this USGS product:

    Modern Fortran DAG Library
      Copyright (c) 2018, Jacob Williams
      All rights reserved.
      (https://github.com/jacobwilliams/daglib)

The following 2-clause BSD License library is used in this
USGS product:

    PETSc, the Portable, Extensible Toolkit for Scientific
    Computation Library
      Copyright (c) 1991-2021, UChicago Argonne, LLC
      and the PETSc Development Team All rights reserved.
      (https://petsc.org/release/)

MODFLOW 6 compiler options: -cpp -I src/libmf6core.a.p -I src -I ../src -I
src/libmf6_external.a.p -I
/home/mreno/.clone/external/petsc/arch-linux-c-debug/include -I
/home/mreno/.clone/external/petsc/include -I
/home/mreno/.clone/external/petsc/arch-linux-c-debug/lib -I
/home/mreno/miniconda3/envs/modflow6/include -I -fdiagnostics-color=always
-imultiarch x86_64-linux-gnu -D _FILE_OFFSET_BITS=64 -D __linux__ -D
__WITH_PETSC__ -D __WITH_MPI__ -D __WITH_NETCDF__ -mtune=generic
-march=x86-64 -g -O2 -Wall -Wpedantic -Wcharacter-truncation
-Wno-unused-dummy-argument -Wno-intrinsic-shadow -Wno-maybe-uninitialized
-Wno-uninitialized -std=f2008 -fall-intrinsics -fbacktrace -fcheck=all
-ffpe-trap=overflow,zero,invalid -ffpe-summary=overflow
-ffpe-trap=overflow,zero,invalid -fPIC -J src/libmf6core.a.p
-fpre-include=/usr/include/finclude/math-vector-fortran.h

System command used to initiate simulation:
/home/mreno/.clone/usgs/w/netcdf/2/modflow6/bin/mf6

MODFLOW was compiled using uniform precision.

Real Variables
  KIND: 8
  TINY (smallest non-zero value):    2.225074-308
  HUGE (largest value):    1.797693+308
  PRECISION: 15
  SIZE IN BITS: 64

Integer Variables
  KIND: 4
  HUGE (largest value): 2147483647
  SIZE IN BITS: 32

Long Integer Variables
  KIND: 8
  HUGE (largest value): 9223372036854775807
  SIZE IN BITS: 64

Logical Variables
  KIND: 4
  SIZE IN BITS: 32


 OPENED mfsim.nam
 FILE TYPE:NAM6      UNIT 1001   STATUS:OLD                 
 FORMAT:FORMATTED              ACCESS:SEQUENTIAL          
 ACTION:READ                

 # File generated by Flopy version 3.5.0.dev0 on 10/30/2023 at 09:20:40.

 OPENED gwf0.nam
 FILE TYPE:GWF6      UNIT 1002   STATUS:OLD                 
 FORMAT:FORMATTED              ACCESS:SEQUENTIAL          
 ACTION:READ                

 # File generated by Flopy version 3.5.0.dev0 on 10/30/2023 at 09:20:40.
Model NetCDF4 Input "gwf0.nc" opened NF90_NOWRITE, ncid=65536
IDM nc modeltype=GWF6
IDM load netcdf var model=GWF6, ptype=DIS6
IDM nc4_context pkg cname=GWF0, scname=DIS
IDM load nc model ctype=GWF
IDM load netcdf var model=GWF6, ptype=DIS6, sctype=DIS
Input parameter "NLAY" discovered for package "GWF0/DIS".
IDM load netcdf var model=GWF6, ptype=DIS6
IDM nc4_context pkg cname=GWF0, scname=DIS
IDM load nc model ctype=GWF
IDM load netcdf var model=GWF6, ptype=DIS6, sctype=DIS
Input parameter "NROW" discovered for package "GWF0/DIS".
IDM load netcdf var model=GWF6, ptype=DIS6
IDM nc4_context pkg cname=GWF0, scname=DIS
IDM load nc model ctype=GWF
IDM load netcdf var model=GWF6, ptype=DIS6, sctype=DIS
Input parameter "NCOL" discovered for package "GWF0/DIS".
IDM load netcdf var model=GWF6, ptype=DIS6
IDM nc4_context pkg cname=GWF0, scname=DIS
IDM load nc model ctype=GWF
IDM load netcdf var model=GWF6, ptype=DIS6, sctype=DIS
Input parameter "DELR" discovered for package "GWF0/DIS".
IDM load netcdf var model=GWF6, ptype=DIS6
IDM nc4_context pkg cname=GWF0, scname=DIS
IDM load nc model ctype=GWF
IDM load netcdf var model=GWF6, ptype=DIS6, sctype=DIS
Input parameter "DELC" discovered for package "GWF0/DIS".
IDM load netcdf var model=GWF6, ptype=DIS6
IDM nc4_context pkg cname=GWF0, scname=DIS
IDM load nc model ctype=GWF
IDM load netcdf var model=GWF6, ptype=DIS6, sctype=DIS
Input parameter "TOP" discovered for package "GWF0/DIS".
IDM load netcdf var model=GWF6, ptype=DIS6
IDM nc4_context pkg cname=GWF0, scname=DIS
IDM load nc model ctype=GWF
IDM load netcdf var model=GWF6, ptype=DIS6, sctype=DIS
Input parameter "BOTM" discovered for package "GWF0/DIS".
IDM load netcdf var model=GWF6, ptype=NPF6
IDM nc4_context pkg cname=GWF0, scname=DIS
IDM nc4_context pkg cname=GWF0, scname=NPF
IDM load nc model ctype=GWF
IDM load netcdf var model=GWF6, ptype=NPF6, sctype=NPF
Input parameter "SAVE_FLOWS" discovered for package "GWF0/NPF".
IDM load netcdf var model=GWF6, ptype=NPF6
IDM nc4_context pkg cname=GWF0, scname=DIS
IDM nc4_context pkg cname=GWF0, scname=NPF
IDM load nc model ctype=GWF
IDM load netcdf var model=GWF6, ptype=NPF6, sctype=NPF
Input parameter "REWET" discovered for package "GWF0/NPF".
IDM load netcdf var model=GWF6, ptype=NPF6
IDM nc4_context pkg cname=GWF0, scname=DIS
IDM nc4_context pkg cname=GWF0, scname=NPF
IDM load nc model ctype=GWF
IDM load netcdf var model=GWF6, ptype=NPF6, sctype=NPF
Input parameter "WETFCT" discovered for package "GWF0/NPF".
IDM load netcdf var model=GWF6, ptype=NPF6
IDM nc4_context pkg cname=GWF0, scname=DIS
IDM nc4_context pkg cname=GWF0, scname=NPF
IDM load nc model ctype=GWF
IDM load netcdf var model=GWF6, ptype=NPF6, sctype=NPF
Input parameter "IWETIT" discovered for package "GWF0/NPF".
IDM load netcdf var model=GWF6, ptype=NPF6
IDM nc4_context pkg cname=GWF0, scname=DIS
IDM nc4_context pkg cname=GWF0, scname=NPF
IDM load nc model ctype=GWF
IDM load netcdf var model=GWF6, ptype=NPF6, sctype=NPF
Input parameter "IHDWET" discovered for package "GWF0/NPF".
IDM load netcdf var model=GWF6, ptype=NPF6
IDM nc4_context pkg cname=GWF0, scname=DIS
IDM nc4_context pkg cname=GWF0, scname=NPF
IDM load nc model ctype=GWF
IDM load netcdf var model=GWF6, ptype=NPF6, sctype=NPF
Input parameter "ICELLTYPE" discovered for package "GWF0/NPF".
IDM load netcdf var model=GWF6, ptype=NPF6
IDM nc4_context pkg cname=GWF0, scname=DIS
IDM nc4_context pkg cname=GWF0, scname=NPF
IDM load nc model ctype=GWF
IDM load netcdf var model=GWF6, ptype=NPF6, sctype=NPF
Input parameter "K" discovered for package "GWF0/NPF".
IDM load netcdf var model=GWF6, ptype=NPF6
IDM nc4_context pkg cname=GWF0, scname=DIS
IDM nc4_context pkg cname=GWF0, scname=NPF
IDM load nc model ctype=GWF
IDM load netcdf var model=GWF6, ptype=NPF6, sctype=NPF
Input parameter "WETDRY" discovered for package "GWF0/NPF".
IDM load netcdf var model=GWF6, ptype=CHD6
IDM nc4_context pkg cname=GWF0, scname=DIS
IDM nc4_context pkg cname=GWF0, scname=NPF
IDM nc4_context pkg cname=GWF0, scname=CHD1
IDM load nc model ctype=GWF
IDM load netcdf var model=GWF6, ptype=CHD6, sctype=CHD
Input parameter "PRINT_INPUT" discovered for package "GWF0/CHD1".
IDM load netcdf var model=GWF6, ptype=CHD6
IDM nc4_context pkg cname=GWF0, scname=DIS
IDM nc4_context pkg cname=GWF0, scname=NPF
IDM nc4_context pkg cname=GWF0, scname=CHD1
IDM load nc model ctype=GWF
IDM load netcdf var model=GWF6, ptype=CHD6, sctype=CHD
Input parameter "SAVE_FLOWS" discovered for package "GWF0/CHD1".
IDM load netcdf var model=GWF6, ptype=CHD6
IDM nc4_context pkg cname=GWF0, scname=DIS
IDM nc4_context pkg cname=GWF0, scname=NPF
IDM nc4_context pkg cname=GWF0, scname=CHD1
IDM load nc model ctype=GWF
IDM load netcdf var model=GWF6, ptype=CHD6, sctype=CHD
Input parameter "MAXBOUND" discovered for package "GWF0/CHD1".
IDM load netcdf var model=GWF6, ptype=CHD6
IDM nc4_context pkg cname=GWF0, scname=DIS
IDM nc4_context pkg cname=GWF0, scname=NPF
IDM nc4_context pkg cname=GWF0, scname=CHD1
IDM load nc model ctype=GWF
IDM load netcdf var model=GWF6, ptype=CHD6
IDM nc4_context pkg cname=GWF0, scname=DIS
IDM nc4_context pkg cname=GWF0, scname=NPF
IDM nc4_context pkg cname=GWF0, scname=CHD1
IDM load nc model ctype=GWF
IDM load netcdf var model=GWF6, ptype=CHD6, sctype=CHD
Input parameter "CELLID" discovered for package "GWF0/CHD1".
IDM load netcdf var model=GWF6, ptype=CHD6
IDM nc4_context pkg cname=GWF0, scname=DIS
IDM nc4_context pkg cname=GWF0, scname=NPF
IDM nc4_context pkg cname=GWF0, scname=CHD1
IDM load nc model ctype=GWF
IDM load netcdf var model=GWF6, ptype=CHD6, sctype=CHD
Input parameter "HEAD" discovered for package "GWF0/CHD1".
IDM load netcdf var model=GWF6, ptype=CHD6
IDM nc4_context pkg cname=GWF0, scname=DIS
IDM nc4_context pkg cname=GWF0, scname=NPF
IDM nc4_context pkg cname=GWF0, scname=CHD1
IDM nc4_context pkg cname=GWF0, scname=CHD2
IDM load nc model ctype=GWF
IDM load netcdf var model=GWF6, ptype=CHD6, sctype=CHD
Input parameter "PRINT_INPUT" discovered for package "GWF0/CHD2".
IDM load netcdf var model=GWF6, ptype=CHD6
IDM nc4_context pkg cname=GWF0, scname=DIS
IDM nc4_context pkg cname=GWF0, scname=NPF
IDM nc4_context pkg cname=GWF0, scname=CHD1
IDM nc4_context pkg cname=GWF0, scname=CHD2
IDM load nc model ctype=GWF
IDM load netcdf var model=GWF6, ptype=CHD6, sctype=CHD
Input parameter "SAVE_FLOWS" discovered for package "GWF0/CHD2".
IDM load netcdf var model=GWF6, ptype=CHD6
IDM nc4_context pkg cname=GWF0, scname=DIS
IDM nc4_context pkg cname=GWF0, scname=NPF
IDM nc4_context pkg cname=GWF0, scname=CHD1
IDM nc4_context pkg cname=GWF0, scname=CHD2
IDM load nc model ctype=GWF
IDM load netcdf var model=GWF6, ptype=CHD6, sctype=CHD
Input parameter "MAXBOUND" discovered for package "GWF0/CHD2".
IDM load netcdf var model=GWF6, ptype=CHD6
IDM nc4_context pkg cname=GWF0, scname=DIS
IDM nc4_context pkg cname=GWF0, scname=NPF
IDM nc4_context pkg cname=GWF0, scname=CHD1
IDM nc4_context pkg cname=GWF0, scname=CHD2
IDM load nc model ctype=GWF
IDM load netcdf var model=GWF6, ptype=CHD6
IDM nc4_context pkg cname=GWF0, scname=DIS
IDM nc4_context pkg cname=GWF0, scname=NPF
IDM nc4_context pkg cname=GWF0, scname=CHD1
IDM nc4_context pkg cname=GWF0, scname=CHD2
IDM load nc model ctype=GWF
IDM load netcdf var model=GWF6, ptype=CHD6, sctype=CHD
Input parameter "CELLID" discovered for package "GWF0/CHD2".
IDM load netcdf var model=GWF6, ptype=CHD6
IDM nc4_context pkg cname=GWF0, scname=DIS
IDM nc4_context pkg cname=GWF0, scname=NPF
IDM nc4_context pkg cname=GWF0, scname=CHD1
IDM nc4_context pkg cname=GWF0, scname=CHD2
IDM load nc model ctype=GWF
IDM load netcdf var model=GWF6, ptype=CHD6, sctype=CHD
Input parameter "HEAD" discovered for package "GWF0/CHD2".
IDM input_load pkg=DIS
IDM NF90_MAX_DIMS=1024
IDM NF90_MAX_VAR_DIMS=1024
varname=NLAY, type=INTEGER
varname=NROW, type=INTEGER
varname=NCOL, type=INTEGER
varname=DELR, type=DOUBLE1D
varname=DELC, type=DOUBLE1D
varname=TOP, type=DOUBLE2D
varname=BOTM, type=DOUBLE3D
    ALL SIMULATION MEMORY INFORMATION WILL BE WRITTEN.

 DETAILED INFORMATION ON VARIABLES STORED IN THE MEMORY MANAGER
 -----------------------------------------------------------------------------------------------------------------------------------------------------------------------------
 ORIGIN                                             VARIABLE NAME    DATA TYPE             NUMBER OF ITEMS ASSOCIATED VARIABLE                                                
 -----------------------------------------------------------------------------------------------------------------------------------------------------------------------------
 __INPUT__/SIM/NAM                                  TDIS6            STRING LEN=300                      1 --                                                                 
 __INPUT__/SIM/NAM                                  MTYPE            STRING LEN=300                      1 --                                                                 
 __INPUT__/SIM/NAM                                  MFNAME           STRING LEN=300                      1 --                                                                 
 __INPUT__/SIM/NAM                                  MNAME            STRING LEN=300                      1 --                                                                 
 __INPUT__/SIM/NAM                                  EXGTYPE          STRING LEN=300                      0 --                                                                 
 __INPUT__/SIM/NAM                                  EXGFILE          STRING LEN=300                      0 --                                                                 
 __INPUT__/SIM/NAM                                  EXGMNAMEA        STRING LEN=300                      0 --                                                                 
 __INPUT__/SIM/NAM                                  EXGMNAMEB        STRING LEN=300                      0 --                                                                 
 __INPUT__/SIM/NAM                                  SOLUTIONGROUPNUM INTEGER                             1 --                                                                 
 __INPUT__/SIM/NAM                                  SLNTYPE          STRING LEN=300                      1 --                                                                 
 __INPUT__/SIM/NAM                                  SLNFNAME         STRING LEN=300                      1 --                                                                 
 __INPUT__/SIM/NAM                                  SLNMNAMES        STRING LEN=300                      1 --                                                                 
 __INPUT__/SIM/NAM                                  CONTINUE         INTEGER                             1 --                                                                 
 __INPUT__/SIM/NAM                                  NOCHECK          INTEGER                             1 --                                                                 
 __INPUT__/SIM/NAM                                  PRMEM            STRING LEN=300                      1 --                                                                 
 __INPUT__/SIM/NAM                                  MAXERRORS        INTEGER                             1 --                                                                 
 __INPUT__/SIM/NAM                                  PRINT_INPUT      INTEGER                             1 --                                                                 
 __INPUT__/SIM/NAM                                  MXITER           INTEGER                             1 --                                                                 
 __INPUT__/SIM                                      NUMMODELS        INTEGER                             1 --                                                                 
 __INPUT__/SIM                                      NUMEXCHANGES     INTEGER                             1 --                                                                 
 __INPUT__/GWF0/NAM                                 FTYPE            STRING LEN=300                      6 --                                                                 
 __INPUT__/GWF0/NAM                                 FNAME            STRING LEN=300                      6 --                                                                 
 __INPUT__/GWF0/NAM                                 PNAME            STRING LEN=300                      6 --                                                                 
 __INPUT__/GWF0                                     PKGTYPES         STRING LEN=7                        0 --                                                                 
 __INPUT__/GWF0                                     PKGNAMES         STRING LEN=16                       0 --                                                                 
 __INPUT__/GWF0                                     MEMPATHS         STRING LEN=50                       0 --                                                                 
 __INPUT__/GWF0                                     INUNITS          INTEGER                             0 --                                                                 
 __INPUT__/GWF0/DIS                                 INPUT_FNAME      STRING LEN=300                      1 --                                                                 
 __INPUT__/GWF0/NPF                                 INPUT_FNAME      STRING LEN=300                      1 --                                                                 
 __INPUT__/GWF0/CHD1                                INPUT_FNAME      STRING LEN=300                      1 --                                                                 
 __INPUT__/GWF0/CHD2                                INPUT_FNAME      STRING LEN=300                      1 --                                                                 
 __INPUT__/GWF0/DIS                                 NLAY             INTEGER                             1 --                                                                 
 __INPUT__/GWF0/DIS                                 NROW             INTEGER                             1 --                                                                 
 __INPUT__/GWF0/DIS                                 NCOL             INTEGER                             1 --                                                                 
 __INPUT__/GWF0                                     MODEL_SHAPE      INTEGER                             3 --                                                                 
 __INPUT__/GWF0                                     NCELLDIM         INTEGER                             1 --                                                                 
 __INPUT__/GWF0/DIS                                 DELR             DOUBLE                             15 --                                                                 
 __INPUT__/GWF0/DIS                                 DELC             DOUBLE                             10 --                                                                 
 __INPUT__/GWF0/DIS                                 TOP              DOUBLE                            150 --                                                                 
 __INPUT__/GWF0/DIS                                 BOTM             DOUBLE                            450 --                                                                 
 -----------------------------------------------------------------------------------------------------------------------------------------------------------------------------



 MEMORY MANAGER TOTAL STORAGE BY DATA TYPE, IN KILOBYTES
 -------------------------------
                    ALLOCATED   
 DATA TYPE           MEMORY     
 -------------------------------
 Character        1.8240000     
 Logical          0.0000000     
 Integer          6.00000000E-02
 Real             5.0000000     
 -------------------------------
 Total            6.8840000     
 Virtual          0.0000000     
 -------------------------------


IDM input_load pkg=NPF
IDM NF90_MAX_DIMS=1024
IDM NF90_MAX_VAR_DIMS=1024
varname=IPAKCB, type=KEYWORD
varname=IREWET, type=KEYWORD
varname=WETFCT, type=DOUBLE
varname=IWETIT, type=INTEGER
varname=IHDWET, type=INTEGER
varname=ICELLTYPE, type=INTEGER1D
varname=K, type=DOUBLE1D
varname=WETDRY, type=DOUBLE1D
    ALL SIMULATION MEMORY INFORMATION WILL BE WRITTEN.

 DETAILED INFORMATION ON VARIABLES STORED IN THE MEMORY MANAGER
 -----------------------------------------------------------------------------------------------------------------------------------------------------------------------------
 ORIGIN                                             VARIABLE NAME    DATA TYPE             NUMBER OF ITEMS ASSOCIATED VARIABLE                                                
 -----------------------------------------------------------------------------------------------------------------------------------------------------------------------------
 __INPUT__/SIM/NAM                                  TDIS6            STRING LEN=300                      1 --                                                                 
 __INPUT__/SIM/NAM                                  MTYPE            STRING LEN=300                      1 --                                                                 
 __INPUT__/SIM/NAM                                  MFNAME           STRING LEN=300                      1 --                                                                 
 __INPUT__/SIM/NAM                                  MNAME            STRING LEN=300                      1 --                                                                 
 __INPUT__/SIM/NAM                                  EXGTYPE          STRING LEN=300                      0 --                                                                 
 __INPUT__/SIM/NAM                                  EXGFILE          STRING LEN=300                      0 --                                                                 
 __INPUT__/SIM/NAM                                  EXGMNAMEA        STRING LEN=300                      0 --                                                                 
 __INPUT__/SIM/NAM                                  EXGMNAMEB        STRING LEN=300                      0 --                                                                 
 __INPUT__/SIM/NAM                                  SOLUTIONGROUPNUM INTEGER                             1 --                                                                 
 __INPUT__/SIM/NAM                                  SLNTYPE          STRING LEN=300                      1 --                                                                 
 __INPUT__/SIM/NAM                                  SLNFNAME         STRING LEN=300                      1 --                                                                 
 __INPUT__/SIM/NAM                                  SLNMNAMES        STRING LEN=300                      1 --                                                                 
 __INPUT__/SIM/NAM                                  CONTINUE         INTEGER                             1 --                                                                 
 __INPUT__/SIM/NAM                                  NOCHECK          INTEGER                             1 --                                                                 
 __INPUT__/SIM/NAM                                  PRMEM            STRING LEN=300                      1 --                                                                 
 __INPUT__/SIM/NAM                                  MAXERRORS        INTEGER                             1 --                                                                 
 __INPUT__/SIM/NAM                                  PRINT_INPUT      INTEGER                             1 --                                                                 
 __INPUT__/SIM/NAM                                  MXITER           INTEGER                             1 --                                                                 
 __INPUT__/SIM                                      NUMMODELS        INTEGER                             1 --                                                                 
 __INPUT__/SIM                                      NUMEXCHANGES     INTEGER                             1 --                                                                 
 __INPUT__/GWF0/NAM                                 FTYPE            STRING LEN=300                      6 --                                                                 
 __INPUT__/GWF0/NAM                                 FNAME            STRING LEN=300                      6 --                                                                 
 __INPUT__/GWF0/NAM                                 PNAME            STRING LEN=300                      6 --                                                                 
 __INPUT__/GWF0                                     PKGTYPES         STRING LEN=7                        0 --                                                                 
 __INPUT__/GWF0                                     PKGNAMES         STRING LEN=16                       0 --                                                                 
 __INPUT__/GWF0                                     MEMPATHS         STRING LEN=50                       0 --                                                                 
 __INPUT__/GWF0                                     INUNITS          INTEGER                             0 --                                                                 
 __INPUT__/GWF0/DIS                                 INPUT_FNAME      STRING LEN=300                      1 --                                                                 
 __INPUT__/GWF0/NPF                                 INPUT_FNAME      STRING LEN=300                      1 --                                                                 
 __INPUT__/GWF0/CHD1                                INPUT_FNAME      STRING LEN=300                      1 --                                                                 
 __INPUT__/GWF0/CHD2                                INPUT_FNAME      STRING LEN=300                      1 --                                                                 
 __INPUT__/GWF0/DIS                                 NLAY             INTEGER                             1 --                                                                 
 __INPUT__/GWF0/DIS                                 NROW             INTEGER                             1 --                                                                 
 __INPUT__/GWF0/DIS                                 NCOL             INTEGER                             1 --                                                                 
 __INPUT__/GWF0                                     MODEL_SHAPE      INTEGER                             3 --                                                                 
 __INPUT__/GWF0                                     NCELLDIM         INTEGER                             1 --                                                                 
 __INPUT__/GWF0/DIS                                 DELR             DOUBLE                             15 --                                                                 
 __INPUT__/GWF0/DIS                                 DELC             DOUBLE                             10 --                                                                 
 __INPUT__/GWF0/DIS                                 TOP              DOUBLE                            150 --                                                                 
 __INPUT__/GWF0/DIS                                 BOTM             DOUBLE                            450 --                                                                 
 __INPUT__/GWF0/NPF                                 IPAKCB           INTEGER                             1 --                                                                 
 __INPUT__/GWF0/NPF                                 IREWET           INTEGER                             1 --                                                                 
 __INPUT__/GWF0/NPF                                 WETFCT           DOUBLE                              1 --                                                                 
 __INPUT__/GWF0/NPF                                 IWETIT           INTEGER                             1 --                                                                 
 __INPUT__/GWF0/NPF                                 IHDWET           INTEGER                             1 --                                                                 
 __INPUT__/GWF0/NPF                                 ICELLTYPE        INTEGER                           450 --                                                                 
 __INPUT__/GWF0/NPF                                 K                DOUBLE                            450 --                                                                 
 __INPUT__/GWF0/NPF                                 WETDRY           DOUBLE                            450 --                                                                 
 -----------------------------------------------------------------------------------------------------------------------------------------------------------------------------



 MEMORY MANAGER TOTAL STORAGE BY DATA TYPE, IN KILOBYTES
 -------------------------------
                    ALLOCATED   
 DATA TYPE           MEMORY     
 -------------------------------
 Character        1.8240000     
 Logical          0.0000000     
 Integer          1.8800000     
 Real             12.200000     
 -------------------------------
 Total            15.904000     
 Virtual          0.0000000     
 -------------------------------



 OPENED gwf0.ic
 FILE TYPE:IC6       UNIT 1003   STATUS:OLD                 
 FORMAT:FORMATTED              ACCESS:SEQUENTIAL          
 ACTION:READ                


 OPENED gwf0.oc
 FILE TYPE:OC6       UNIT 1004   STATUS:OLD                 
 FORMAT:FORMATTED              ACCESS:SEQUENTIAL          
 ACTION:READ                

IDM input_load pkg=CHD1
IDM NF90_MAX_DIMS=1024
IDM NF90_MAX_VAR_DIMS=1024
varname=IPRPAK, type=KEYWORD
varname=IPAKCB, type=KEYWORD
varname=MAXBOUND, type=INTEGER
    ALL SIMULATION MEMORY INFORMATION WILL BE WRITTEN.

 DETAILED INFORMATION ON VARIABLES STORED IN THE MEMORY MANAGER
 -----------------------------------------------------------------------------------------------------------------------------------------------------------------------------
 ORIGIN                                             VARIABLE NAME    DATA TYPE             NUMBER OF ITEMS ASSOCIATED VARIABLE                                                
 -----------------------------------------------------------------------------------------------------------------------------------------------------------------------------
 __INPUT__/SIM/NAM                                  TDIS6            STRING LEN=300                      1 --                                                                 
 __INPUT__/SIM/NAM                                  MTYPE            STRING LEN=300                      1 --                                                                 
 __INPUT__/SIM/NAM                                  MFNAME           STRING LEN=300                      1 --                                                                 
 __INPUT__/SIM/NAM                                  MNAME            STRING LEN=300                      1 --                                                                 
 __INPUT__/SIM/NAM                                  EXGTYPE          STRING LEN=300                      0 --                                                                 
 __INPUT__/SIM/NAM                                  EXGFILE          STRING LEN=300                      0 --                                                                 
 __INPUT__/SIM/NAM                                  EXGMNAMEA        STRING LEN=300                      0 --                                                                 
 __INPUT__/SIM/NAM                                  EXGMNAMEB        STRING LEN=300                      0 --                                                                 
 __INPUT__/SIM/NAM                                  SOLUTIONGROUPNUM INTEGER                             1 --                                                                 
 __INPUT__/SIM/NAM                                  SLNTYPE          STRING LEN=300                      1 --                                                                 
 __INPUT__/SIM/NAM                                  SLNFNAME         STRING LEN=300                      1 --                                                                 
 __INPUT__/SIM/NAM                                  SLNMNAMES        STRING LEN=300                      1 --                                                                 
 __INPUT__/SIM/NAM                                  CONTINUE         INTEGER                             1 --                                                                 
 __INPUT__/SIM/NAM                                  NOCHECK          INTEGER                             1 --                                                                 
 __INPUT__/SIM/NAM                                  PRMEM            STRING LEN=300                      1 --                                                                 
 __INPUT__/SIM/NAM                                  MAXERRORS        INTEGER                             1 --                                                                 
 __INPUT__/SIM/NAM                                  PRINT_INPUT      INTEGER                             1 --                                                                 
 __INPUT__/SIM/NAM                                  MXITER           INTEGER                             1 --                                                                 
 __INPUT__/SIM                                      NUMMODELS        INTEGER                             1 --                                                                 
 __INPUT__/SIM                                      NUMEXCHANGES     INTEGER                             1 --                                                                 
 __INPUT__/GWF0/NAM                                 FTYPE            STRING LEN=300                      6 --                                                                 
 __INPUT__/GWF0/NAM                                 FNAME            STRING LEN=300                      6 --                                                                 
 __INPUT__/GWF0/NAM                                 PNAME            STRING LEN=300                      6 --                                                                 
 __INPUT__/GWF0                                     PKGTYPES         STRING LEN=7                        0 --                                                                 
 __INPUT__/GWF0                                     PKGNAMES         STRING LEN=16                       0 --                                                                 
 __INPUT__/GWF0                                     MEMPATHS         STRING LEN=50                       0 --                                                                 
 __INPUT__/GWF0                                     INUNITS          INTEGER                             0 --                                                                 
 __INPUT__/GWF0/DIS                                 INPUT_FNAME      STRING LEN=300                      1 --                                                                 
 __INPUT__/GWF0/NPF                                 INPUT_FNAME      STRING LEN=300                      1 --                                                                 
 __INPUT__/GWF0/CHD1                                INPUT_FNAME      STRING LEN=300                      1 --                                                                 
 __INPUT__/GWF0/CHD2                                INPUT_FNAME      STRING LEN=300                      1 --                                                                 
 __INPUT__/GWF0/DIS                                 NLAY             INTEGER                             1 --                                                                 
 __INPUT__/GWF0/DIS                                 NROW             INTEGER                             1 --                                                                 
 __INPUT__/GWF0/DIS                                 NCOL             INTEGER                             1 --                                                                 
 __INPUT__/GWF0                                     MODEL_SHAPE      INTEGER                             3 --                                                                 
 __INPUT__/GWF0                                     NCELLDIM         INTEGER                             1 --                                                                 
 __INPUT__/GWF0/DIS                                 DELR             DOUBLE                             15 --                                                                 
 __INPUT__/GWF0/DIS                                 DELC             DOUBLE                             10 --                                                                 
 __INPUT__/GWF0/DIS                                 TOP              DOUBLE                            150 --                                                                 
 __INPUT__/GWF0/DIS                                 BOTM             DOUBLE                            450 --                                                                 
 __INPUT__/GWF0/NPF                                 IPAKCB           INTEGER                             1 --                                                                 
 __INPUT__/GWF0/NPF                                 IREWET           INTEGER                             1 --                                                                 
 __INPUT__/GWF0/NPF                                 WETFCT           DOUBLE                              1 --                                                                 
 __INPUT__/GWF0/NPF                                 IWETIT           INTEGER                             1 --                                                                 
 __INPUT__/GWF0/NPF                                 IHDWET           INTEGER                             1 --                                                                 
 __INPUT__/GWF0/NPF                                 ICELLTYPE        INTEGER                           450 --                                                                 
 __INPUT__/GWF0/NPF                                 K                DOUBLE                            450 --                                                                 
 __INPUT__/GWF0/NPF                                 WETDRY           DOUBLE                            450 --                                                                 
 __INPUT__/GWF0/CHD1                                IPRPAK           INTEGER                             1 --                                                                 
 __INPUT__/GWF0/CHD1                                IPAKCB           INTEGER                             1 --                                                                 
 __INPUT__/GWF0/CHD1                                NAUX             INTEGER                             1 --                                                                 
 __INPUT__/GWF0/CHD1                                MAXBOUND         INTEGER                             1 --                                                                 
 __INPUT__/GWF0/CHD1                                IPER             INTEGER                             1 --                                                                 
 __INPUT__/GWF0/CHD1                                IONPER           INTEGER                             1 --                                                                 
 __INPUT__/GWF0/CHD1                                NBOUND           INTEGER                             1 --                                                                 
 __INPUT__/GWF0/CHD1                                NCPL             INTEGER                             1 --                                                                 
 __INPUT__/GWF0/CHD1                                AUXILIARY        STRING LEN=16                       0 --                                                                 
 __INPUT__/GWF0/CHD1                                CELLID           INTEGER                            90 --                                                                 
 __INPUT__/GWF0/CHD1                                HEAD             DOUBLE                             30 --                                                                 
 __INPUT__/GWF0/CHD1                                BOUNDNAME        STRING LEN=40                       0 --                                                                 
 __INPUT__/GWF0/CHD1                                AUXVAR           DOUBLE                              0 --                                                                 
 -----------------------------------------------------------------------------------------------------------------------------------------------------------------------------



 MEMORY MANAGER TOTAL STORAGE BY DATA TYPE, IN KILOBYTES
 -------------------------------
                    ALLOCATED   
 DATA TYPE           MEMORY     
 -------------------------------
 Character        1.8240000     
 Logical          0.0000000     
 Integer          2.2720000     
 Real             12.440000     
 -------------------------------
 Total            16.536000     
 Virtual          0.0000000     
 -------------------------------


IDM input_load pkg=CHD2
IDM NF90_MAX_DIMS=1024
IDM NF90_MAX_VAR_DIMS=1024
varname=IPRPAK, type=KEYWORD
varname=IPAKCB, type=KEYWORD
varname=MAXBOUND, type=INTEGER
    ALL SIMULATION MEMORY INFORMATION WILL BE WRITTEN.

 DETAILED INFORMATION ON VARIABLES STORED IN THE MEMORY MANAGER
 -----------------------------------------------------------------------------------------------------------------------------------------------------------------------------
 ORIGIN                                             VARIABLE NAME    DATA TYPE             NUMBER OF ITEMS ASSOCIATED VARIABLE                                                
 -----------------------------------------------------------------------------------------------------------------------------------------------------------------------------
 __INPUT__/SIM/NAM                                  TDIS6            STRING LEN=300                      1 --                                                                 
 __INPUT__/SIM/NAM                                  MTYPE            STRING LEN=300                      1 --                                                                 
 __INPUT__/SIM/NAM                                  MFNAME           STRING LEN=300                      1 --                                                                 
 __INPUT__/SIM/NAM                                  MNAME            STRING LEN=300                      1 --                                                                 
 __INPUT__/SIM/NAM                                  EXGTYPE          STRING LEN=300                      0 --                                                                 
 __INPUT__/SIM/NAM                                  EXGFILE          STRING LEN=300                      0 --                                                                 
 __INPUT__/SIM/NAM                                  EXGMNAMEA        STRING LEN=300                      0 --                                                                 
 __INPUT__/SIM/NAM                                  EXGMNAMEB        STRING LEN=300                      0 --                                                                 
 __INPUT__/SIM/NAM                                  SOLUTIONGROUPNUM INTEGER                             1 --                                                                 
 __INPUT__/SIM/NAM                                  SLNTYPE          STRING LEN=300                      1 --                                                                 
 __INPUT__/SIM/NAM                                  SLNFNAME         STRING LEN=300                      1 --                                                                 
 __INPUT__/SIM/NAM                                  SLNMNAMES        STRING LEN=300                      1 --                                                                 
 __INPUT__/SIM/NAM                                  CONTINUE         INTEGER                             1 --                                                                 
 __INPUT__/SIM/NAM                                  NOCHECK          INTEGER                             1 --                                                                 
 __INPUT__/SIM/NAM                                  PRMEM            STRING LEN=300                      1 --                                                                 
 __INPUT__/SIM/NAM                                  MAXERRORS        INTEGER                             1 --                                                                 
 __INPUT__/SIM/NAM                                  PRINT_INPUT      INTEGER                             1 --                                                                 
 __INPUT__/SIM/NAM                                  MXITER           INTEGER                             1 --                                                                 
 __INPUT__/SIM                                      NUMMODELS        INTEGER                             1 --                                                                 
 __INPUT__/SIM                                      NUMEXCHANGES     INTEGER                             1 --                                                                 
 __INPUT__/GWF0/NAM                                 FTYPE            STRING LEN=300                      6 --                                                                 
 __INPUT__/GWF0/NAM                                 FNAME            STRING LEN=300                      6 --                                                                 
 __INPUT__/GWF0/NAM                                 PNAME            STRING LEN=300                      6 --                                                                 
 __INPUT__/GWF0                                     PKGTYPES         STRING LEN=7                        0 --                                                                 
 __INPUT__/GWF0                                     PKGNAMES         STRING LEN=16                       0 --                                                                 
 __INPUT__/GWF0                                     MEMPATHS         STRING LEN=50                       0 --                                                                 
 __INPUT__/GWF0                                     INUNITS          INTEGER                             0 --                                                                 
 __INPUT__/GWF0/DIS                                 INPUT_FNAME      STRING LEN=300                      1 --                                                                 
 __INPUT__/GWF0/NPF                                 INPUT_FNAME      STRING LEN=300                      1 --                                                                 
 __INPUT__/GWF0/CHD1                                INPUT_FNAME      STRING LEN=300                      1 --                                                                 
 __INPUT__/GWF0/CHD2                                INPUT_FNAME      STRING LEN=300                      1 --                                                                 
 __INPUT__/GWF0/DIS                                 NLAY             INTEGER                             1 --                                                                 
 __INPUT__/GWF0/DIS                                 NROW             INTEGER                             1 --                                                                 
 __INPUT__/GWF0/DIS                                 NCOL             INTEGER                             1 --                                                                 
 __INPUT__/GWF0                                     MODEL_SHAPE      INTEGER                             3 --                                                                 
 __INPUT__/GWF0                                     NCELLDIM         INTEGER                             1 --                                                                 
 __INPUT__/GWF0/DIS                                 DELR             DOUBLE                             15 --                                                                 
 __INPUT__/GWF0/DIS                                 DELC             DOUBLE                             10 --                                                                 
 __INPUT__/GWF0/DIS                                 TOP              DOUBLE                            150 --                                                                 
 __INPUT__/GWF0/DIS                                 BOTM             DOUBLE                            450 --                                                                 
 __INPUT__/GWF0/NPF                                 IPAKCB           INTEGER                             1 --                                                                 
 __INPUT__/GWF0/NPF                                 IREWET           INTEGER                             1 --                                                                 
 __INPUT__/GWF0/NPF                                 WETFCT           DOUBLE                              1 --                                                                 
 __INPUT__/GWF0/NPF                                 IWETIT           INTEGER                             1 --                                                                 
 __INPUT__/GWF0/NPF                                 IHDWET           INTEGER                             1 --                                                                 
 __INPUT__/GWF0/NPF                                 ICELLTYPE        INTEGER                           450 --                                                                 
 __INPUT__/GWF0/NPF                                 K                DOUBLE                            450 --                                                                 
 __INPUT__/GWF0/NPF                                 WETDRY           DOUBLE                            450 --                                                                 
 __INPUT__/GWF0/CHD1                                IPRPAK           INTEGER                             1 --                                                                 
 __INPUT__/GWF0/CHD1                                IPAKCB           INTEGER                             1 --                                                                 
 __INPUT__/GWF0/CHD1                                NAUX             INTEGER                             1 --                                                                 
 __INPUT__/GWF0/CHD1                                MAXBOUND         INTEGER                             1 --                                                                 
 __INPUT__/GWF0/CHD1                                IPER             INTEGER                             1 --                                                                 
 __INPUT__/GWF0/CHD1                                IONPER           INTEGER                             1 --                                                                 
 __INPUT__/GWF0/CHD1                                NBOUND           INTEGER                             1 --                                                                 
 __INPUT__/GWF0/CHD1                                NCPL             INTEGER                             1 --                                                                 
 __INPUT__/GWF0/CHD1                                AUXILIARY        STRING LEN=16                       0 --                                                                 
 __INPUT__/GWF0/CHD1                                CELLID           INTEGER                            90 --                                                                 
 __INPUT__/GWF0/CHD1                                HEAD             DOUBLE                             30 --                                                                 
 __INPUT__/GWF0/CHD1                                BOUNDNAME        STRING LEN=40                       0 --                                                                 
 __INPUT__/GWF0/CHD1                                AUXVAR           DOUBLE                              0 --                                                                 
 __INPUT__/GWF0/CHD2                                IPRPAK           INTEGER                             1 --                                                                 
 __INPUT__/GWF0/CHD2                                IPAKCB           INTEGER                             1 --                                                                 
 __INPUT__/GWF0/CHD2                                NAUX             INTEGER                             1 --                                                                 
 __INPUT__/GWF0/CHD2                                MAXBOUND         INTEGER                             1 --                                                                 
 __INPUT__/GWF0/CHD2                                IPER             INTEGER                             1 --                                                                 
 __INPUT__/GWF0/CHD2                                IONPER           INTEGER                             1 --                                                                 
 __INPUT__/GWF0/CHD2                                NBOUND           INTEGER                             1 --                                                                 
 __INPUT__/GWF0/CHD2                                NCPL             INTEGER                             1 --                                                                 
 __INPUT__/GWF0/CHD2                                AUXILIARY        STRING LEN=16                       0 --                                                                 
 __INPUT__/GWF0/CHD2                                CELLID           INTEGER                            90 --                                                                 
 __INPUT__/GWF0/CHD2                                HEAD             DOUBLE                             30 --                                                                 
 __INPUT__/GWF0/CHD2                                BOUNDNAME        STRING LEN=40                       0 --                                                                 
 __INPUT__/GWF0/CHD2                                AUXVAR           DOUBLE                              0 --                                                                 
 -----------------------------------------------------------------------------------------------------------------------------------------------------------------------------



 MEMORY MANAGER TOTAL STORAGE BY DATA TYPE, IN KILOBYTES
 -------------------------------
                    ALLOCATED   
 DATA TYPE           MEMORY     
 -------------------------------
 Character        1.8240000     
 Logical          0.0000000     
 Integer          2.6640000     
 Real             12.680000     
 -------------------------------
 Total            17.168000     
 Virtual          0.0000000     
 -------------------------------



 READING SIMULATION OPTIONS
    MAXIMUM NUMBER OF ERRORS THAT WILL BE STORED IS 1000
 END OF SIMULATION OPTIONS

 READING SIMULATION TIMING

 OPENED npf02_hrewetc.tdis
 FILE TYPE:TDIS   UNIT 1005   STATUS:OLD                 
 FORMAT:FORMATTED              ACCESS:SEQUENTIAL          
 ACTION:READ                


 TDIS -- TEMPORAL DISCRETIZATION PACKAGE,
 VERSION 1 : 11/13/2014 - INPUT READ FROM UNIT 1005
 # File generated by Flopy version 3.5.0.dev0 on 10/30/2023 at 09:20:40.
 PROCESSING TDIS OPTIONS
    SIMULATION TIME UNIT IS DAYS
 END OF TDIS OPTIONS
 PROCESSING TDIS DIMENSIONS
    2 STRESS PERIOD(S) IN SIMULATION
 END OF TDIS DIMENSIONS
 PROCESSING TDIS PERIODDATA


 STRESS PERIOD     LENGTH       TIME STEPS     MULTIPLIER FOR DELT
 ----------------------------------------------------------------------------
        1         1.000000          1                    1.000
        2         1.000000          1                    1.000
 END OF TDIS PERIODDATA
 END OF SIMULATION TIMING

 READING SIMULATION MODELS
    GWF6 model 1 will be created
 END OF SIMULATION MODELS

 READING SIMULATION EXCHANGES
 END OF SIMULATION EXCHANGES

 READING SOLUTIONGROUP

 Creating solution: SLN_1           

 OPENED npf02_hrewetc.ims
 FILE TYPE:IMS   UNIT 1007   STATUS:OLD                 
 FORMAT:FORMATTED              ACCESS:SEQUENTIAL          
 ACTION:READ                

 END OF SOLUTIONGROUP

PROCESSING MODEL CONNECTIONS

 IMS -- ITERATIVE MODEL SOLUTION PACKAGE, VERSION 6, 4/28/2017
         INPUT READ FROM UNIT 1007
 # File generated by Flopy version 3.5.0.dev0 on 10/30/2023 at 09:20:40.

 PROCESSING IMS OPTIONS

 OPENED npf02_hrewetc.outer.ims.csv
 FILE TYPE:CSV_OUTER_OUTPUT   UNIT 1011   STATUS:REPLACE             
 FORMAT:FORMATTED              ACCESS:SEQUENTIAL          
 ACTION:READWRITE           

    CSV OUTPUT WILL BE SAVED TO FILE: npf02_hrewetc.outer.ims.csv
    OPENED ON UNIT:    1011

 OPENED npf02_hrewetc.inner.ims.csv
 FILE TYPE:CSV_INNER_OUTPUT   UNIT 1012   STATUS:REPLACE             
 FORMAT:FORMATTED              ACCESS:SEQUENTIAL          
 ACTION:READWRITE           

    CSV OUTPUT WILL BE SAVED TO FILE: npf02_hrewetc.inner.ims.csv
    OPENED ON UNIT:    1012
 END OF IMS OPTIONS

 PROCESSING IMS NONLINEAR
 END OF IMS NONLINEAR DATA
 ***UNDER-RELAXATION WILL NOT BE USED***


 PROCESSING LINEAR DATA
 END OF LINEAR DATA
 ***IMS LINEAR SOLVER WILL BE USED***

 IMSLINEAR -- UNSTRUCTURED LINEAR SOLUTION PACKAGE, VERSION 8, 04/28/2017
 A symmetric matrix will be solved

 OUTER ITERATION CONVERGENCE CRITERION    (DVCLOSE) =    0.100000E+00
 MAXIMUM NUMBER OF OUTER ITERATIONS        (MXITER) = 1000
 SOLVER PRINTOUT INDEX                     (IPRIMS) = 2
 NONLINEAR ITERATION METHOD            (NONLINMETH) = 0
 LINEAR SOLUTION METHOD                   (LINMETH) = 1

       SOLUTION BY THE        CONJUGATE-GRADIENT       METHOD
 ------------------------------------------------------------------
 MAXIMUM OF 1000 CALLS OF SOLUTION ROUTINE
 MAXIMUM OF 100 INTERNAL ITERATIONS PER CALL TO SOLUTION ROUTINE
 LINEAR ACCELERATION METHOD            = CG        
 MATRIX PRECONDITIONING TYPE           = MOD. INCOMPLETE LU  
 MATRIX SCALING APPROACH               = NO SCALING          
 MATRIX REORDERING APPROACH            = ORIGINAL ORDERING        
 NUMBER OF ORTHOGONALIZATIONS          = 0
 HEAD CHANGE CRITERION FOR CLOSURE     =    0.10000E+00
 RESIDUAL CHANGE CRITERION FOR CLOSURE =    0.10000E-01
 RESIDUAL CONVERGENCE OPTION           = 0
 RESIDUAL CONVERGENCE NORM             = INFINITY NORM   
 RELAXATION FACTOR                     =    0.10000E+01




    Solving:  Stress period:     1    Time step:     1

1
                            STRESS PERIOD NO. 1, LENGTH =   1.000000    
                            -----------------------------------------------
                            NUMBER OF TIME STEPS = 1
                            MULTIPLIER FOR DELT =     1.000
IDM inlist_rp iiper=1
IDM RP LIST kper=1
IDM RP LIST varname=CELLID, type=INTEGER1D
Found INODATA CELLIDsize m=3size n=30
CELLID FIRST SET nbound=30
IDM RP LIST varname=HEAD, type=DOUBLE
IDM inlist_rp iiper=1
IDM RP LIST kper=1
IDM RP LIST varname=CELLID, type=INTEGER1D
Found INODATA CELLIDsize m=3size n=30
Found INODATA CELLID m=1 n=11
CELLID FIRST SET nbound=10
IDM RP LIST varname=HEAD, type=DOUBLE
                            INITIAL TIME STEP SIZE =   1.000000    

 SLN_1 OUTER ITERATION SUMMARY
 ----------------------------------------------------------------------------------------------------------
                                OUTER      INNER                    STEP   MAXIMUM CHANGE MODEL-(CELLID) OR
 OUTER ITERATION STEP       ITERATION  ITERATION  MAXIMUM CHANGE SUCCESS             MODEL-PACKAGE-(NUMBER)
 ----------------------------------------------------------------------------------------------------------
 Model                              1         13       133.82354                             1_GWF-(3,10,2)
 Model                              2         13       92.357882                              1_GWF-(2,7,2)
 Model                              3         16       43.960031                              1_GWF-(1,4,2)
 Model                              4         18       10.083641                              1_GWF-(1,9,8)
 Model                              5         17       4.0564307                             1_GWF-(2,9,14)
 Model                              6         17     -0.94082243                            1_GWF-(2,10,13)
 Model                              7         15     -0.31274127                             1_GWF-(2,4,13)
 Model                              8         14  3.93193171E-02       *                     1_GWF-(2,3,10)
 ----------------------------------------------------------------------------------------------------------


 8 CALLS TO NUMERICAL SOLUTION IN TIME STEP 1 STRESS PERIOD 1
 123 TOTAL ITERATIONS

 SLN_1 INNER ITERATION SUMMARY
 --------------------------------------------------------------------------------------------------------------------------------------
      TOTAL      OUTER      INNER                                                            MAXIMUM                                   
  ITERATION  ITERATION  ITERATION  MAXIMUM CHANGE      MAXIMUM CHANGE MODEL-(CELLID)        RESIDUAL    MAXIMUM RESIDUAL MODEL-(CELLID)
 --------------------------------------------------------------------------------------------------------------------------------------
          1          1          1       131.69092                     1_GWF-(3,10,2)       1480.4690                    1_GWF-(3,10,12)
          2          1          2       30.987299                      1_GWF-(3,1,9)      -811.64285                     1_GWF-(3,1,12)
          3          1          3      -12.122993                     1_GWF-(3,10,7)      -462.47163                     1_GWF-(3,1,14)
          4          1          4      -2.9564173                     1_GWF-(3,10,4)      -147.59510                     1_GWF-(3,1,14)
          5          1          5      0.96698969                     1_GWF-(3,2,10)      -45.401380                     1_GWF-(3,2,12)
          6          1          6      0.32669725                     1_GWF-(3,2,12)       14.469602                      1_GWF-(3,9,5)
          7          1          7      0.11768277                      1_GWF-(3,4,9)       7.1733112                     1_GWF-(3,10,2)
          8          1          8 -2.42946833E-02                      1_GWF-(3,1,4)       1.7615753                     1_GWF-(3,10,2)
          9          1          9  1.01573578E-02                      1_GWF-(3,4,7)      0.54237519                     1_GWF-(3,10,2)
         10          1         10 -2.48123885E-03                    1_GWF-(3,10,13)      0.12484963                      1_GWF-(3,8,5)
         11          1         11  9.32907335E-04                     1_GWF-(3,8,11)  4.91713064E-02                      1_GWF-(3,7,8)
         12          1         12 -2.06030662E-04                      1_GWF-(3,7,8)  1.15829688E-02                      1_GWF-(3,2,4)
         13          1         13 -5.27206711E-05                      1_GWF-(3,2,4)  3.31504314E-03                      1_GWF-(3,6,9)
         14          2          1       94.200344                      1_GWF-(2,1,2)       3177.3876                      1_GWF-(3,1,6)
         15          2          2      -20.320224                     1_GWF-(3,3,10)       1773.2310                     1_GWF-(3,1,11)
         16          2          3      -6.5178223                     1_GWF-(3,1,11)       780.70242                     1_GWF-(3,1,12)
         17          2          4      -2.3273881                     1_GWF-(3,1,13)      -227.98216                     1_GWF-(3,2,12)
         18          2          5     -0.41582008                     1_GWF-(3,1,14)       91.954482                     1_GWF-(3,2,11)
         19          2          6     -0.20474797                     1_GWF-(3,3,12)      -43.352018                     1_GWF-(3,10,2)
         20          2          7 -5.24116342E-02                     1_GWF-(2,2,11)      -10.604891                     1_GWF-(3,10,2)
         21          2          8 -1.13558210E-02                      1_GWF-(3,3,8)      -3.2355471                     1_GWF-(3,10,2)
         22          2          9  3.97280861E-03                      1_GWF-(2,8,8)      -1.0817972                     1_GWF-(3,10,2)
         23          2         10 -1.70012205E-03                      1_GWF-(2,9,9)      0.31446557                      1_GWF-(3,4,8)
         24          2         11 -3.67721217E-04                     1_GWF-(3,1,12) -8.95346304E-02                      1_GWF-(3,8,5)
         25          2         12  1.25905827E-04                      1_GWF-(2,1,6) -3.29272897E-02                      1_GWF-(3,7,7)
         26          2         13 -3.14381136E-05                      1_GWF-(2,2,8)  6.39611478E-03                      1_GWF-(3,3,8)
         27          3          1       44.829603                      1_GWF-(1,1,2)      -4548.5581                     1_GWF-(3,10,7)
         28          3          2      -16.343517                      1_GWF-(3,3,8)       2219.7541                     1_GWF-(3,2,11)
         29          3          3      -6.0364550                      1_GWF-(3,1,9)      -1247.9566                      1_GWF-(3,2,9)
         30          3          4      -2.5038438                     1_GWF-(3,1,10)      -671.68748                      1_GWF-(3,1,8)
         31          3          5     -0.89816012                     1_GWF-(2,1,11)      -283.18090                     1_GWF-(3,1,10)
         32          3          6     -0.18601541                     1_GWF-(3,1,14)      -112.57726                     1_GWF-(3,1,10)
         33          3          7 -7.98080339E-02                     1_GWF-(2,3,10)      -56.721618                      1_GWF-(3,2,8)
         34          3          8 -3.76209477E-02                     1_GWF-(3,9,13)      -17.551310                      1_GWF-(3,9,9)
         35          3          9 -1.81418059E-02                    1_GWF-(3,10,13)       6.8111359                    1_GWF-(2,10,11)
         36          3         10 -5.66858631E-03                    1_GWF-(2,10,11)       3.1346443                    1_GWF-(2,10,11)
         37          3         11 -2.64879399E-03                     1_GWF-(3,7,14)      -1.0415632                     1_GWF-(3,5,11)
         38          3         12  8.30295091E-04                     1_GWF-(2,1,12)     -0.40585124                    1_GWF-(3,10,11)
         39          3         13  4.81895517E-04                     1_GWF-(2,1,12)      0.19737882                     1_GWF-(3,1,11)
         40          3         14  1.34326180E-04                     1_GWF-(2,1,13)  7.53313802E-02                     1_GWF-(3,1,11)
         41          3         15  6.70305569E-05                     1_GWF-(2,1,13) -3.68626295E-02                     1_GWF-(3,1,10)
         42          3         16  1.83052860E-05                     1_GWF-(3,2,12) -8.23556495E-03                     1_GWF-(3,1,10)
         43          4          1       12.804094                     1_GWF-(1,10,8)      -12596.423                      1_GWF-(1,1,8)
         44          4          2       7.8444712                      1_GWF-(1,3,9)      -3114.7535                      1_GWF-(1,1,8)
         45          4          3      -3.9586385                      1_GWF-(3,2,7)      -1049.4147                     1_GWF-(3,1,11)
         46          4          4      -1.0907583                      1_GWF-(3,1,7)      -444.64742                     1_GWF-(3,1,11)
         47          4          5     -0.46478818                    1_GWF-(2,10,12)       191.39593                    1_GWF-(2,10,12)
         48          4          6     -0.27117995                    1_GWF-(2,10,12)      -91.584218                      1_GWF-(3,9,9)
         49          4          7 -8.35357058E-02                     1_GWF-(2,4,13)      -60.363783                     1_GWF-(3,2,10)
         50          4          8 -4.60394937E-02                     1_GWF-(2,7,10)       18.900665                     1_GWF-(2,3,10)
         51          4          9 -2.33614765E-02                     1_GWF-(3,6,14)      -8.5740788                     1_GWF-(3,8,13)
         52          4         10 -7.76832489E-03                     1_GWF-(3,9,14)      -4.1577371                     1_GWF-(2,2,11)
         53          4         11 -3.00121746E-03                      1_GWF-(1,7,6)      -1.8045254                     1_GWF-(3,9,13)
         54          4         12 -1.27371901E-03                     1_GWF-(3,7,14)      0.92709635                    1_GWF-(2,10,13)
         55          4         13  8.37609054E-04                     1_GWF-(2,1,13)      0.44721749                     1_GWF-(3,2,11)
         56          4         14  3.44679065E-04                     1_GWF-(2,1,13)      0.16995896                    1_GWF-(2,10,13)
         57          4         15 -1.07205965E-04                    1_GWF-(2,10,13)  7.25859279E-02                    1_GWF-(2,10,13)
         58          4         16 -3.09666706E-05                    1_GWF-(2,10,13)  2.91063536E-02                    1_GWF-(2,10,13)
         59          4         17 -1.16783621E-05                     1_GWF-(3,9,14) -1.10562921E-02                     1_GWF-(3,9,13)
         60          4         18 -3.90915481E-06                     1_GWF-(3,9,14) -5.02987112E-03                     1_GWF-(2,2,11)
         61          5          1       4.6320162                     1_GWF-(2,2,14)       2499.2649                     1_GWF-(3,9,14)
         62          5          2       2.1935027                      1_GWF-(3,9,7)      -717.92986                      1_GWF-(3,1,7)
         63          5          3      0.80674812                      1_GWF-(3,1,7)      -316.45257                      1_GWF-(3,1,7)
         64          5          4     -0.25031872                     1_GWF-(1,10,8)      -112.56720                     1_GWF-(3,1,12)
         65          5          5     -0.13172044                     1_GWF-(2,9,13)      -46.301919                      1_GWF-(3,2,6)
         66          5          6 -5.50007973E-02                    1_GWF-(2,10,13)      -19.625327                     1_GWF-(3,1,12)
         67          5          7 -2.83540220E-02                    1_GWF-(2,10,13)      -13.102291                     1_GWF-(3,9,10)
         68          5          8 -1.51094680E-02                     1_GWF-(2,4,12)      -7.6997024                      1_GWF-(3,9,9)
         69          5          9 -6.72243716E-03                     1_GWF-(3,1,14)       3.1995062                     1_GWF-(3,9,14)
         70          5         10 -2.68262796E-03                     1_GWF-(3,6,14)      -1.2198856                     1_GWF-(3,1,13)
         71          5         11  1.07322871E-03                     1_GWF-(2,1,13)      0.58304964                     1_GWF-(3,1,12)
         72          5         12  4.14902994E-04                     1_GWF-(2,1,13)      0.28749612                     1_GWF-(3,1,12)
         73          5         13  1.55431503E-04                     1_GWF-(2,1,13)      0.13025541                    1_GWF-(2,10,13)
         74          5         14 -1.21067864E-04                    1_GWF-(2,10,12)  6.61435153E-02                    1_GWF-(2,10,13)
         75          5         15  2.83265839E-05                      1_GWF-(3,9,8)  3.24881176E-02                    1_GWF-(2,10,13)
         76          5         16 -1.21147200E-05                    1_GWF-(2,10,13)  1.13725495E-02                    1_GWF-(2,10,13)
         77          5         17 -4.59566211E-06                     1_GWF-(3,9,14)  4.50926005E-03                      1_GWF-(3,6,7)
         78          6          1      -1.4360083                    1_GWF-(2,10,13)       643.62798                     1_GWF-(2,1,13)
         79          6          2      0.44836201                      1_GWF-(3,2,8)       476.00894                     1_GWF-(2,1,13)
         80          6          3      0.28213842                    1_GWF-(2,10,14)      -369.24847                     1_GWF-(3,2,13)
         81          6          4      0.28788252                    1_GWF-(2,10,14)      -203.40745                     1_GWF-(3,2,13)
         82          6          5      0.14455817                    1_GWF-(2,10,14)      -90.592555                     1_GWF-(3,1,13)
         83          6          6  2.96008967E-02                    1_GWF-(2,10,14)       55.998667                    1_GWF-(2,10,13)
         84          6          7  1.24465049E-02                    1_GWF-(2,10,14)       40.740411                    1_GWF-(2,10,13)
         85          6          8  1.08808354E-02                     1_GWF-(3,1,13)       21.543892                    1_GWF-(2,10,13)
         86          6          9  3.58206273E-03                     1_GWF-(2,2,12)       9.3647952                    1_GWF-(2,10,13)
         87          6         10  1.48043900E-03                      1_GWF-(3,7,6)       4.7847551                    1_GWF-(2,10,13)
         88          6         11 -9.37141345E-04                    1_GWF-(2,10,12)      -2.1968424                    1_GWF-(3,10,13)
         89          6         12 -4.78356641E-04                     1_GWF-(2,1,13)      -1.1068275                    1_GWF-(3,10,13)
         90          6         13 -2.34142061E-04                     1_GWF-(2,1,13)     -0.41328142                    1_GWF-(3,10,13)
         91          6         14 -7.10707745E-05                    1_GWF-(2,10,14)     -0.16770612                    1_GWF-(3,10,13)
         92          6         15 -2.90869650E-05                    1_GWF-(2,10,14) -6.07390157E-02                    1_GWF-(3,10,13)
         93          6         16 -1.58717879E-05                    1_GWF-(2,10,14) -1.88713811E-02                    1_GWF-(3,10,13)
         94          6         17  5.71315394E-06                     1_GWF-(3,10,9) -6.31648417E-03                    1_GWF-(3,10,13)
         95          7          1     -0.25834511                     1_GWF-(2,4,13)       131.69953                     1_GWF-(2,1,13)
         96          7          2     -0.11117794                    1_GWF-(2,10,13)       89.033618                     1_GWF-(2,1,13)
         97          7          3 -4.65955148E-02                     1_GWF-(3,10,8)      -66.139552                     1_GWF-(3,2,13)
         98          7          4 -2.40221929E-02                     1_GWF-(2,1,13)      -40.134773                     1_GWF-(3,2,13)
         99          7          5 -1.42635742E-02                     1_GWF-(2,1,13)      -16.159400                     1_GWF-(3,2,13)
        100          7          6  2.97116911E-03                      1_GWF-(1,3,8)       9.0227291                     1_GWF-(2,2,13)
        101          7          7 -2.08355659E-03                      1_GWF-(1,5,9)       5.8000317                     1_GWF-(2,2,13)
        102          7          8  2.23823194E-03                     1_GWF-(3,1,13)       2.0951578                    1_GWF-(2,10,13)
        103          7          9  6.00579348E-04                     1_GWF-(2,2,12)      0.77862967                    1_GWF-(2,10,13)
        104          7         10  2.40559698E-04                     1_GWF-(1,10,7)     -0.39144039                    1_GWF-(3,10,13)
        105          7         11  1.48924004E-04                     1_GWF-(2,9,10)     -0.18471877                    1_GWF-(3,10,13)
        106          7         12 -3.92828346E-05                      1_GWF-(3,5,5) -8.46348760E-02                    1_GWF-(3,10,13)
        107          7         13  2.51883379E-05                     1_GWF-(2,8,12) -2.82086325E-02                    1_GWF-(3,10,13)
        108          7         14 -8.09777795E-06                     1_GWF-(3,6,10) -1.04184419E-02                    1_GWF-(3,10,13)
        109          7         15 -4.34288755E-06                     1_GWF-(3,3,11) -4.55482379E-03                    1_GWF-(3,10,13)
        110          8          1  5.08536271E-02                     1_GWF-(3,9,11)      -16.100610                     1_GWF-(2,1,12)
        111          8          2  2.04356192E-02                     1_GWF-(3,1,11)      -13.274506                     1_GWF-(2,1,12)
        112          8          3 -1.43947103E-02                    1_GWF-(2,10,13)       11.201704                     1_GWF-(3,2,12)
        113          8          4 -1.17853900E-02                    1_GWF-(2,10,13)       6.3457439                     1_GWF-(3,1,12)
        114          8          5 -3.92192374E-03                    1_GWF-(2,10,14)      -3.4285052                    1_GWF-(2,10,12)
        115          8          6 -1.74423991E-03                     1_GWF-(3,1,12)      -1.9237637                    1_GWF-(2,10,12)
        116          8          7 -3.60098085E-04                      1_GWF-(3,8,9)      -1.2494697                    1_GWF-(2,10,12)
        117          8          8 -2.60337290E-04                     1_GWF-(3,2,10)      0.74753567                    1_GWF-(3,10,12)
        118          8          9 -9.67996791E-05                    1_GWF-(2,10,14)      0.31715128                    1_GWF-(3,10,12)
[...]
 SLN_1                                              WSAVE            DOUBLE                              0 --                                                                 
 SLN_1                                              HCHOLD           DOUBLE                              0 --                                                                 
 SLN_1                                              DEOLD            DOUBLE                              0 --                                                                 
 SLN_1                                              CONVMODSTART     INTEGER                             2 --                                                                 
 TMPSLN_1                                           CONVNMOD         INTEGER                             1 --                                                                 
 TMPSLN_1                                           NITERMAX         INTEGER                             1 --                                                                 
 TMPSLN_1                                           ITINNER          INTEGER                        100000 --                                                                 
 TMPSLN_1                                           LOCDV            INTEGER                             1 --                                                                 
 TMPSLN_1                                           DVMAX            DOUBLE                              1 --                                                                 
 TMPSLN_1                                           LOCDR            INTEGER                             1 --                                                                 
 TMPSLN_1                                           DRMAX            DOUBLE                              1 --                                                                 
 TMPSLN_1                                           CONVDVMAX        DOUBLE                         100000 --                                                                 
 TMPSLN_1                                           CONVLOCDV        INTEGER                        100000 --                                                                 
 TMPSLN_1                                           CONVDRMAX        DOUBLE                         100000 --                                                                 
 TMPSLN_1                                           CONVLOCDR        INTEGER                        100000 --                                                                 
 GWF0                                               X                DOUBLE                            450 SLN_1/X                                                            
 GWF0                                               RHS              DOUBLE                            450 SLN_1/RHS                                                          
 GWF0                                               IBOUND           INTEGER                           450 SLN_1/IBOUND                                                       
 SLN_1                                              NROW             INTEGER                             1 --                                                                 
 SLN_1                                              NCOL             INTEGER                             1 --                                                                 
 SLN_1                                              NJA              INTEGER                             1 --                                                                 
 SLN_1                                              IA               INTEGER                           451 --                                                                 
 SLN_1                                              JA               INTEGER                          2700 --                                                                 
 SLN_1                                              AMAT             DOUBLE                           2700 --                                                                 
 GWF0/IC                                            STRT             DOUBLE                            450 --                                                                 
 GWF0/CHD1                                          NODELIST         INTEGER                            30 --                                                                 
 GWF0/CHD1                                          NOUPDATEAUXVAR   INTEGER                             0 --                                                                 
 GWF0/CHD1                                          BOUND            DOUBLE                             30 --                                                                 
 GWF0/CHD1                                          CONDINPUT        DOUBLE                              0 --                                                                 
 GWF0/CHD1                                          HCOF             DOUBLE                             30 --                                                                 
 GWF0/CHD1                                          RHS              DOUBLE                             30 --                                                                 
 GWF0/CHD1                                          SIMVALS          DOUBLE                             30 --                                                                 
 GWF0/CHD1                                          SIMTOMVR         DOUBLE                              0 --                                                                 
 GWF0/CHD1                                          AUXVAR           DOUBLE                              0 --                                                                 
 GWF0/CHD1                                          BOUNDNAME        STRING LEN=40                       0 --                                                                 
 GWF0/CHD1                                          BOUNDNAME_CST    STRING LEN=40                       0 --                                                                 
 GWF0/CHD1                                          CELLID           INTEGER                            90 __INPUT__/GWF0/CHD1/CELLID                                         
 GWF0/CHD1                                          BOUNDNAME_IDM    STRING LEN=40                       0 __INPUT__/GWF0/CHD1/BOUNDNAME                                      
 GWF0/CHD1                                          AUXVAR_IDM       DOUBLE                              0 __INPUT__/GWF0/CHD1/AUXVAR                                         
 GWF0/CHD1                                          RATECHDIN        DOUBLE                             30 --                                                                 
 GWF0/CHD1                                          RATECHDOUT       DOUBLE                             30 --                                                                 
 GWF0/CHD1                                          HEAD             DOUBLE                             30 __INPUT__/GWF0/CHD1/HEAD                                           
 GWF0/CHD2                                          NODELIST         INTEGER                            30 --                                                                 
 GWF0/CHD2                                          NOUPDATEAUXVAR   INTEGER                             0 --                                                                 
 GWF0/CHD2                                          BOUND            DOUBLE                             30 --                                                                 
 GWF0/CHD2                                          CONDINPUT        DOUBLE                              0 --                                                                 
 GWF0/CHD2                                          HCOF             DOUBLE                             30 --                                                                 
 GWF0/CHD2                                          RHS              DOUBLE                             30 --                                                                 
 GWF0/CHD2                                          SIMVALS          DOUBLE                             30 --                                                                 
 GWF0/CHD2                                          SIMTOMVR         DOUBLE                              0 --                                                                 
 GWF0/CHD2                                          AUXVAR           DOUBLE                              0 --                                                                 
 GWF0/CHD2                                          BOUNDNAME        STRING LEN=40                       0 --                                                                 
 GWF0/CHD2                                          BOUNDNAME_CST    STRING LEN=40                       0 --                                                                 
 GWF0/CHD2                                          CELLID           INTEGER                            90 __INPUT__/GWF0/CHD2/CELLID                                         
 GWF0/CHD2                                          BOUNDNAME_IDM    STRING LEN=40                       0 __INPUT__/GWF0/CHD2/BOUNDNAME                                      
 GWF0/CHD2                                          AUXVAR_IDM       DOUBLE                              0 __INPUT__/GWF0/CHD2/AUXVAR                                         
 GWF0/CHD2                                          RATECHDIN        DOUBLE                             30 --                                                                 
 GWF0/CHD2                                          RATECHDOUT       DOUBLE                             30 --                                                                 
 GWF0/CHD2                                          HEAD             DOUBLE                             30 __INPUT__/GWF0/CHD2/HEAD                                           
 SLN_1/IMSLINEAR                                    DVCLOSE          DOUBLE                              1 --                                                                 
 SLN_1/IMSLINEAR                                    RCLOSE           DOUBLE                              1 --                                                                 
 SLN_1/IMSLINEAR                                    ICNVGOPT         INTEGER                             1 --                                                                 
 SLN_1/IMSLINEAR                                    ITER1            INTEGER                             1 --                                                                 
 SLN_1/IMSLINEAR                                    ILINMETH         INTEGER                             1 --                                                                 
 SLN_1/IMSLINEAR                                    ISCL             INTEGER                             1 --                                                                 
 SLN_1/IMSLINEAR                                    IORD             INTEGER                             1 --                                                                 
 SLN_1/IMSLINEAR                                    NORTH            INTEGER                             1 --                                                                 
 SLN_1/IMSLINEAR                                    RELAX            DOUBLE                              1 --                                                                 
 SLN_1/IMSLINEAR                                    LEVEL            INTEGER                             1 --                                                                 
 SLN_1/IMSLINEAR                                    DROPTOL          DOUBLE                              1 --                                                                 
 SLN_1/IMSLINEAR                                    IDFPARAM         INTEGER                             1 --                                                                 
 SLN_1/IMSLINEAR                                    NJA              INTEGER                             1 --                                                                 
 SLN_1/IMSLINEAR                                    IOUT             INTEGER                             1 --                                                                 
 SLN_1/IMSLINEAR                                    IPC              INTEGER                             1 --                                                                 
 SLN_1/IMSLINEAR                                    IACPC            INTEGER                             1 --                                                                 
 SLN_1/IMSLINEAR                                    NITERC           INTEGER                             1 --                                                                 
 SLN_1/IMSLINEAR                                    NIABCGS          INTEGER                             1 --                                                                 
 SLN_1/IMSLINEAR                                    NIAPC            INTEGER                             1 --                                                                 
 SLN_1/IMSLINEAR                                    NJAPC            INTEGER                             1 --                                                                 
 SLN_1/IMSLINEAR                                    EPFACT           DOUBLE                              1 --                                                                 
 SLN_1/IMSLINEAR                                    L2NORM0          DOUBLE                              1 --                                                                 
 SLN_1/IMSLINEAR                                    NJLU             INTEGER                             1 --                                                                 
 SLN_1/IMSLINEAR                                    NJW              INTEGER                             1 --                                                                 
 SLN_1/IMSLINEAR                                    NWLU             INTEGER                             1 --                                                                 
 SLN_1/IMSLINEAR                                    DSCALE           DOUBLE                              1 --                                                                 
 SLN_1/IMSLINEAR                                    DSCALE2          DOUBLE                              1 --                                                                 
 SLN_1/IMSLINEAR                                    IAPC             INTEGER                           451 --                                                                 
 SLN_1/IMSLINEAR                                    JAPC             INTEGER                          2700 --                                                                 
 SLN_1/IMSLINEAR                                    APC              DOUBLE                           2700 --                                                                 
 SLN_1/IMSLINEAR                                    IW               INTEGER                           450 --                                                                 
 SLN_1/IMSLINEAR                                    W                DOUBLE                            450 --                                                                 
 SLN_1/IMSLINEAR                                    JLU              INTEGER                             1 --                                                                 
 SLN_1/IMSLINEAR                                    JW               INTEGER                             1 --                                                                 
 SLN_1/IMSLINEAR                                    WLU              DOUBLE                              1 --                                                                 
 SLN_1/IMSLINEAR                                    LORDER           INTEGER                             1 --                                                                 
 SLN_1/IMSLINEAR                                    IORDER           INTEGER                             1 --                                                                 
 SLN_1/IMSLINEAR                                    IARO             INTEGER                             2 --                                                                 
 SLN_1/IMSLINEAR                                    JARO             INTEGER                             1 --                                                                 
 SLN_1/IMSLINEAR                                    ARO              DOUBLE                              1 --                                                                 
 SLN_1/IMSLINEAR                                    ID               INTEGER                           450 --                                                                 
 SLN_1/IMSLINEAR                                    D                DOUBLE                            450 --                                                                 
 SLN_1/IMSLINEAR                                    P                DOUBLE                            450 --                                                                 
 SLN_1/IMSLINEAR                                    Q                DOUBLE                            450 --                                                                 
 SLN_1/IMSLINEAR                                    Z                DOUBLE                            450 --                                                                 
 SLN_1/IMSLINEAR                                    T                DOUBLE                              1 --                                                                 
 SLN_1/IMSLINEAR                                    V                DOUBLE                              1 --                                                                 
 SLN_1/IMSLINEAR                                    DHAT             DOUBLE                              1 --                                                                 
 SLN_1/IMSLINEAR                                    PHAT             DOUBLE                              1 --                                                                 
 SLN_1/IMSLINEAR                                    QHAT             DOUBLE                              1 --                                                                 
 -----------------------------------------------------------------------------------------------------------------------------------------------------------------------------



 MEMORY MANAGER TOTAL STORAGE BY DATA TYPE, IN MEGABYTES
 -------------------------------
                    ALLOCATED   
 DATA TYPE           MEMORY     
 -------------------------------
 Character        6.76600000E-03
 Logical          4.00000000E-05
 Integer          1.3056840     
 Real             1.8178800     
 -------------------------------
 Total            3.1303700     
 Virtual          0.0000000     
 -------------------------------



 Run end date and time (yyyy/mm/dd hh:mm:ss): 2023/10/30  9:20:40
 Elapsed run time:  0.031 Seconds
 Normal termination of simulation.
