                             MODFLOW 6 PROFESSIONAL
                U.S. GEOLOGICAL SURVEY MODULAR HYDROLOGIC MODEL
                          GROUNDWATER FLOW MODEL (GWF)
                  VERSION 6.5.0.dev0 (preliminary) 07/13/2023
                               ***DEVELOP MODE***

        MODFLOW 6 compiled Oct 30 2023 08:23:02 with GCC version 11.3.0

This software is preliminary or provisional and is subject to 
revision. It is being provided to meet the need for timely best 
science. The software has not received final approval by the U.S. 
Geological Survey (USGS). No warranty, expressed or implied, is made 
by the USGS or the U.S. Government as to the functionality of the 
software and related material nor shall the fact of release 
constitute any such warranty. The software is provided on the 
condition that neither the USGS nor the U.S. Government shall be held 
liable for any damages resulting from the authorized or unauthorized 
use of the software.


As a work of the United States Government, this USGS product is 
in the public domain within the United States. You can copy, 
modify, distribute, and perform the work, even for commercial 
purposes, all without asking permission. Additionally, USGS 
waives copyright and related rights in the work worldwide 
through CC0 1.0 Universal Public Domain Dedication 
(https://creativecommons.org/publicdomain/zero/1.0/).

The following GNU Lesser General Public License (LGPL) libraries
are used in this USGS product:

    SPARSKIT version 2.0
      ilut, luson, and qsplit 
      (https://www-users.cse.umn.edu/~saad/software/SPARSKIT/)

    RCM - Reverse Cuthill McKee Ordering
      (https://people.math.sc.edu/Burkardt/f_src/rcm/rcm.html)

    BLAS - Basic Linear Algebra Subprograms Level 1
      (https://people.math.sc.edu/Burkardt/f_src/blas1_d/blas1_d.html)

    SPARSEKIT - Sparse Matrix Utility Package
      amux, dperm, dvperm, rperm, and cperm
      (https://people.sc.fsu.edu/~jburkardt/f77_src/sparsekit/sparsekit.html)

The following BSD-3 License libraries are used in this USGS product:

    Modern Fortran DAG Library
      Copyright (c) 2018, Jacob Williams
      All rights reserved.
      (https://github.com/jacobwilliams/daglib)

The following 2-clause BSD License library is used in this
USGS product:

    PETSc, the Portable, Extensible Toolkit for Scientific
    Computation Library
      Copyright (c) 1991-2021, UChicago Argonne, LLC
      and the PETSc Development Team All rights reserved.
      (https://petsc.org/release/)

MODFLOW 6 compiler options: -cpp -I src/libmf6core.a.p -I src -I ../src -I
src/libmf6_external.a.p -I
/home/mreno/.clone/external/petsc/arch-linux-c-debug/include -I
/home/mreno/.clone/external/petsc/include -I
/home/mreno/.clone/external/petsc/arch-linux-c-debug/lib -I
/home/mreno/miniconda3/envs/modflow6/include -I -fdiagnostics-color=always
-imultiarch x86_64-linux-gnu -D _FILE_OFFSET_BITS=64 -D __linux__ -D
__WITH_PETSC__ -D __WITH_MPI__ -D __WITH_NETCDF__ -mtune=generic
-march=x86-64 -g -O2 -Wall -Wpedantic -Wcharacter-truncation
-Wno-unused-dummy-argument -Wno-intrinsic-shadow -Wno-maybe-uninitialized
-Wno-uninitialized -std=f2008 -fall-intrinsics -fbacktrace -fcheck=all
-ffpe-trap=overflow,zero,invalid -ffpe-summary=overflow
-ffpe-trap=overflow,zero,invalid -fPIC -J src/libmf6core.a.p
-fpre-include=/usr/include/finclude/math-vector-fortran.h

System command used to initiate simulation:
/home/mreno/.clone/usgs/w/netcdf/2/modflow6/bin/mf6

MODFLOW was compiled using uniform precision.

Real Variables
  KIND: 8
  TINY (smallest non-zero value):    2.225074-308
  HUGE (largest value):    1.797693+308
  PRECISION: 15
  SIZE IN BITS: 64

Integer Variables
  KIND: 4
  HUGE (largest value): 2147483647
  SIZE IN BITS: 32

Long Integer Variables
  KIND: 8
  HUGE (largest value): 9223372036854775807
  SIZE IN BITS: 64

Logical Variables
  KIND: 4
  SIZE IN BITS: 32

 NAMEFILE OPTIONS:
 END NAMEFILE OPTIONS:

 DIS -- STRUCTURED GRID DISCRETIZATION PACKAGE, VERSION 2 : 3/27/2014 - INPUT READ FROM MEMPATH: __INPUT__/GWF1/DIS                                


 NPF -- NODE PROPERTY FLOW PACKAGE, VERSION 1, 3/30/2015 INPUT READ FROM MEMPATH: __INPUT__/GWF1/NPF                                

 Setting Discretization Options
 End Setting Discretization Options

 Setting Discretization Dimensions
    NLAY = 1
    NROW = 10
    NCOL = 5
 End Setting Discretization Dimensions

 Setting Discretization Griddata
    DELR set from input file
    DELC set from input file
    TOP set from input file
    BOTM set from input file
 End Setting Discretization Griddata

 Setting NPF Options
    Cell-by-cell flow information will be saved to binary file whenever ICBCFL is not zero.
    Rewetting is active.
    Wetting factor (WETFCT) has been set to:     1.00000    
    Wetting iteration interval (IWETIT) has been set to:     1
    Head rewet equation (IHDWET) has been set to:     1
 End Setting NPF Options

 Setting NPF Griddata
    ICELLTYPE set from input file
    K set from input file
    K33 not provided.  Setting K33 = K.
    K22 not provided.  Setting K22 = K.
    WETDRY set from input file
 End Setting NPF Griddata


 CHD   -- CHD PACKAGE, VERSION 8, 2/22/2014 INPUT READ FROM MEMPATH: __INPUT__/GWF1/CHD2                               

 PROCESSING CHD BASE OPTIONS
    FLOWS WILL BE SAVED TO BUDGET FILE SPECIFIED IN OUTPUT CONTROL
    LISTS OF CHD CELLS WILL BE PRINTED.
 END OF CHD BASE OPTIONS

 PROCESSING CHD BASE DIMENSIONS
    MAXBOUND =      10
 END OF CHD BASE DIMENSIONS

 IC -- INITIAL CONDITIONS PACKAGE, VERSION 8, 3/28/2015 INPUT READ FROM UNIT 1006
 # File generated by Flopy version 3.5.0.dev0 on 10/30/2023 at 09:20:40.
 PROCESSING GRIDDATA

     INITIAL HEAD =  -40.00000    
 END PROCESSING GRIDDATA
    BINARY GRID INFORMATION WILL BE WRITTEN TO:
      UNIT NUMBER: 1016
      FILE NAME: gwf1.nc.grb

 OPENED gwf1.nc.grb
 FILE TYPE:DATA(BINARY)   UNIT 1016   STATUS:REPLACE             
 FORMAT:UNFORMATTED            ACCESS:STREAM              
 ACTION:READWRITE           

      THE LAST TIME STEP WILL BE PRINTED
      THE LAST TIME STEP WILL BE PRINTED
 # File generated by Flopy version 3.5.0.dev0 on 10/30/2023 at 09:20:40.

 PROCESSING OC OPTIONS

    BUDGET INFORMATION WILL BE WRITTEN TO:
      UNIT NUMBER: 1017
      FILE NAME: gwf1.cbc

 OPENED gwf1.cbc
 FILE TYPE:DATA(BINARY)   UNIT 1017   STATUS:REPLACE             
 FORMAT:UNFORMATTED            ACCESS:STREAM              
 ACTION:READWRITE           

    HEAD INFORMATION WILL BE WRITTEN TO:
      UNIT NUMBER: 1018
      FILE NAME: gwf1.hds

 OPENED gwf1.hds
 FILE TYPE:DATA(BINARY)   UNIT 1018   STATUS:REPLACE             
 FORMAT:UNFORMATTED            ACCESS:STREAM              
 ACTION:READWRITE           

 END OF OC OPTIONS

start timestep kper="1" kstp="1" mode="normal"


 BEGIN READING OUTPUT CONTROL FOR STRESS PERIOD 1
      THE LAST TIME STEP WILL BE SAVED
      THE LAST TIME STEP WILL BE PRINTED
      THE LAST TIME STEP WILL BE PRINTED

 END READING OUTPUT CONTROL FOR STRESS PERIOD 1
 ---------------------------------------------------
  CHD NO.    LAYER    ROW     COL         HEAD      
 ---------------------------------------------------
     1         1       1       5    -40.0000000     
     2         1       2       5    -40.0000000     
     3         1       3       5    -40.0000000     
     4         1       4       5    -40.0000000     
     5         1       5       5    -40.0000000     
     6         1       6       5    -40.0000000     
     7         1       7       5    -40.0000000     
     8         1       8       5    -40.0000000     
     9         1       9       5    -40.0000000     
     10        1      10       5    -40.0000000     
 ---------------------------------------------------



 SLN_1 INNER ITERATION SUMMARY
 --------------------------------------------------------------------------------------------------------------------------------------
      TOTAL      OUTER      INNER                                                            MAXIMUM                                   
  ITERATION  ITERATION  ITERATION  MAXIMUM CHANGE      MAXIMUM CHANGE MODEL-(CELLID)        RESIDUAL    MAXIMUM RESIDUAL MODEL-(CELLID)
 --------------------------------------------------------------------------------------------------------------------------------------
          1          1          1       74.723289                     2_GWF-(1,10,1)       1491.6296                     2_GWF-(1,10,2)
          2          1          2      -27.483744                     2_GWF-(1,10,1)      -815.63990                      2_GWF-(1,1,2)
          3          1          3       11.319423                      2_GWF-(1,1,2)      -462.40850                      2_GWF-(1,1,4)
          4          1          4       2.6771031                      2_GWF-(1,1,3)      -146.41039                      2_GWF-(1,1,4)
          5          1          5      0.84016199                      2_GWF-(1,2,1)      -44.804306                      2_GWF-(1,2,2)
          6          1          6      0.32737920                      2_GWF-(1,2,2)       12.878585                      2_GWF-(1,3,2)
          7          1          7  7.91824432E-02                      2_GWF-(1,6,1)       4.1085068                     2_GWF-(1,10,3)
          8          1          8  2.30709886E-02                      2_GWF-(1,2,3)       1.5036177                     2_GWF-(1,10,3)
          9          1          9  8.60698239E-03                      2_GWF-(1,3,1)      0.51377546                      2_GWF-(1,4,1)
         10          1         10 -2.46969711E-03                     2_GWF-(1,10,3) -8.36164830E-02                      2_GWF-(1,8,1)
         11          1         11  9.37818474E-04                      2_GWF-(1,8,1)  2.84349672E-02                      2_GWF-(1,9,4)
         12          1         12  1.59090554E-04                      2_GWF-(1,1,2)  9.07195549E-03                      2_GWF-(1,9,4)
         13          1         13 -3.25365185E-05                      2_GWF-(1,5,3)  1.82770454E-03                      2_GWF-(1,7,3)
         14          2          1       36.688715                      2_GWF-(1,4,1)      -3119.4463                      2_GWF-(1,1,2)
         15          2          2       18.201822                      2_GWF-(1,1,2)      -2005.1426                      2_GWF-(1,1,4)
         16          2          3       6.9001340                      2_GWF-(1,1,4)      -1023.7174                      2_GWF-(1,2,1)
         17          2          4       2.1888797                      2_GWF-(1,8,1)      -455.29088                      2_GWF-(1,2,2)
         18          2          5      0.85619376                      2_GWF-(1,3,2)       211.73800                      2_GWF-(1,3,1)
         19          2          6     -0.40664137                      2_GWF-(1,3,1)       64.599211                      2_GWF-(1,2,1)
         20          2          7      0.10320968                      2_GWF-(1,5,3)       20.667240                      2_GWF-(1,2,2)
         21          2          8 -4.29648006E-02                      2_GWF-(1,2,2)       8.6390315                      2_GWF-(1,4,1)
         22          2          9  1.26910133E-02                      2_GWF-(1,3,3)      -1.5569769                      2_GWF-(1,5,2)
         23          2         10 -2.07388535E-03                      2_GWF-(1,1,2)      0.43297883                      2_GWF-(1,3,1)
         24          2         11  7.71858599E-04                      2_GWF-(1,2,3)     -0.12836094                      2_GWF-(1,6,1)
         25          2         12 -1.77862201E-04                      2_GWF-(1,1,2)  3.63019424E-02                      2_GWF-(1,7,2)
         26          2         13  7.02604886E-05                     2_GWF-(1,10,2) -1.28408600E-02                      2_GWF-(1,2,3)
         27          2         14  2.47813874E-05                      2_GWF-(1,2,3) -2.69700650E-03                      2_GWF-(1,3,2)
         28          3          1      -9.0644651                      2_GWF-(1,9,1)      -3604.7090                     2_GWF-(1,10,4)
         29          3          2      -4.3261561                      2_GWF-(1,1,1)       2323.6452                      2_GWF-(1,1,3)
         30          3          3       3.0227758                     2_GWF-(1,10,4)      -841.09908                      2_GWF-(1,2,3)
         31          3          4       1.6056812                     2_GWF-(1,10,4)       365.81025                      2_GWF-(1,2,2)
         32          3          5      0.37736810                     2_GWF-(1,10,2)      -128.22647                      2_GWF-(1,9,4)
         33          3          6      0.10603675                      2_GWF-(1,3,1)      -71.180224                      2_GWF-(1,9,4)
         34          3          7  6.67043617E-02                      2_GWF-(1,9,4)      -18.871401                      2_GWF-(1,2,1)
         35          3          8  1.59600788E-02                      2_GWF-(1,2,1)       6.1328467                      2_GWF-(1,3,1)
         36          3          9 -4.44696477E-03                      2_GWF-(1,4,3)      -2.0201798                     2_GWF-(1,10,3)
         37          3         10  1.37161678E-03                     2_GWF-(1,10,3)     -0.58635828                     2_GWF-(1,10,3)
         38          3         11  3.64201442E-04                      2_GWF-(1,7,4)      0.11781176                      2_GWF-(1,4,2)
         39          3         12  9.01144689E-05                     2_GWF-(1,10,3) -3.16591388E-02                      2_GWF-(1,2,2)
         40          3         13 -2.94771845E-05                      2_GWF-(1,1,4)  1.13925122E-02                      2_GWF-(1,2,3)
         41          3         14 -7.19606697E-06                      2_GWF-(1,2,3)  2.05587499E-03                      2_GWF-(1,4,2)
         42          4          1      -2.4143881                      2_GWF-(1,4,2)       871.06319                      2_GWF-(1,1,3)
         43          4          2      -1.1896468                      2_GWF-(1,1,3)       307.02497                      2_GWF-(1,1,3)
         44          4          3     -0.43151320                      2_GWF-(1,1,4)       186.67267                      2_GWF-(1,2,1)
         45          4          4     -0.20098468                      2_GWF-(1,5,4)       76.958285                      2_GWF-(1,2,2)
         46          4          5 -5.80056591E-02                      2_GWF-(1,8,4)      -20.549390                      2_GWF-(1,2,1)
         47          4          6 -1.56969924E-02                      2_GWF-(1,9,1)       6.4857054                      2_GWF-(1,3,1)
         48          4          7  4.98893804E-03                      2_GWF-(1,6,1)       2.5514552                     2_GWF-(1,10,3)
         49          4          8 -2.07278074E-03                      2_GWF-(1,8,3)      0.87433332                     2_GWF-(1,10,3)
         50          4          9 -7.59017234E-04                     2_GWF-(1,10,2)     -0.19317351                      2_GWF-(1,4,1)
         51          4         10 -1.55856948E-04                      2_GWF-(1,5,4) -8.63769431E-02                      2_GWF-(1,2,2)
         52          4         11 -5.22262263E-05                      2_GWF-(1,5,2)  2.60187040E-02                      2_GWF-(1,9,4)
         53          4         12 -1.86645969E-05                      2_GWF-(1,3,3) -6.35924602E-03                      2_GWF-(1,2,2)
         54          5          1      0.47413147                      2_GWF-(1,9,1)      -160.18468                      2_GWF-(1,1,1)
         55          5          2      0.24143580                      2_GWF-(1,1,1)      -100.35210                      2_GWF-(1,1,3)
         56          5          3     -0.16309448                     2_GWF-(1,10,3)       30.863269                     2_GWF-(1,10,1)
         57          5          4 -7.43845556E-02                     2_GWF-(1,10,3)      -17.178652                      2_GWF-(1,2,1)
         58          5          5 -1.86101826E-02                     2_GWF-(1,10,1)       6.8682638                      2_GWF-(1,9,4)
         59          5          6 -4.91589311E-03                      2_GWF-(1,4,1)       3.2997725                      2_GWF-(1,9,4)
         60          5          7 -3.23810565E-03                      2_GWF-(1,9,4)      0.96859618                      2_GWF-(1,2,1)
         61          5          8 -8.23570318E-04                      2_GWF-(1,2,1)     -0.26493391                      2_GWF-(1,3,1)
         62          5          9  2.14668780E-04                      2_GWF-(1,4,3)      0.10904161                     2_GWF-(1,10,3)
         63          5         10 -7.78776358E-05                     2_GWF-(1,10,3)  2.58465211E-02                     2_GWF-(1,10,3)
         64          5         11 -1.69368181E-05                      2_GWF-(1,7,4) -5.49578371E-03                      2_GWF-(1,4,2)
         65          6          1      0.13047618                      2_GWF-(1,4,2)      -43.360723                      2_GWF-(1,1,3)
         66          6          2  6.35373862E-02                      2_GWF-(1,1,3)      -17.339344                      2_GWF-(1,1,3)
         67          6          3  2.28904680E-02                      2_GWF-(1,1,3)      -9.8843232                      2_GWF-(1,2,1)
         68          6          4  1.04478550E-02                      2_GWF-(1,5,4)      -3.7808295                      2_GWF-(1,2,2)
         69          6          5  3.00961988E-03                      2_GWF-(1,8,4)      0.97668776                      2_GWF-(1,2,1)
         70          6          6  8.66491607E-04                      2_GWF-(1,9,1)      0.39200811                      2_GWF-(1,2,1)
         71          6          7  3.40380852E-04                      2_GWF-(1,5,3)      0.15694727                      2_GWF-(1,2,1)
         72          6          8  1.30704428E-04                      2_GWF-(1,8,3)  4.43853908E-02                      2_GWF-(1,9,3)
         73          6          9  4.17655750E-05                     2_GWF-(1,10,2) -1.12232752E-02                      2_GWF-(1,8,1)
         74          6         10  8.52800864E-06                      2_GWF-(1,6,4)  5.08285852E-03                      2_GWF-(1,2,2)
         75          7          1 -2.54785531E-02                      2_GWF-(1,9,1)       9.0019667                      2_GWF-(1,1,1)
         76          7          2 -1.32546849E-02                      2_GWF-(1,1,1)       5.4278359                      2_GWF-(1,1,2)
         77          7          3  8.96524471E-03                     2_GWF-(1,10,3)      -1.7814164                     2_GWF-(1,10,1)
         78          7          4  3.95160554E-03                     2_GWF-(1,10,3)      0.90299856                      2_GWF-(1,2,1)
         79          7          5  9.98543392E-04                     2_GWF-(1,10,1)     -0.35868346                      2_GWF-(1,9,4)
         80          7          6  2.47947001E-04                      2_GWF-(1,4,1)     -0.16482565                      2_GWF-(1,9,4)
         81          7          7  1.66975417E-04                      2_GWF-(1,9,4) -5.20316281E-02                      2_GWF-(1,2,1)
         82          7          8  4.54015381E-05                      2_GWF-(1,2,1)  1.41162490E-02                      2_GWF-(1,3,1)
         83          7          9 -1.18355499E-05                      2_GWF-(1,4,3) -6.12347873E-03                     2_GWF-(1,10,3)
 --------------------------------------------------------------------------------------------------------------------------------------


1
  HEAD IN LAYER   1 AT END OF TIME STEP   1 IN STRESS PERIOD    1
  ---------------------------------------------------------------------------

                1               2               3               4               5
 ................................................................................
   1      36.5370         27.3565         16.9026         4.39940        -40.0000    
   2      36.5370         27.3565         16.9026         4.39940        -40.0000    
   3      36.5370         27.3565         16.9026         4.39940        -40.0000    
   4      36.5370         27.3565         16.9026         4.39939        -40.0000    
   5      36.5370         27.3565         16.9026         4.39939        -40.0000    
   6      36.5370         27.3565         16.9026         4.39939        -40.0000    
   7      36.5370         27.3565         16.9026         4.39939        -40.0000    
   8      36.5370         27.3565         16.9026         4.39939        -40.0000    
   9      36.5370         27.3565         16.9026         4.39940        -40.0000    
  10      36.5370         27.3565         16.9026         4.39939        -40.0000    

 HEAD WILL BE SAVED ON UNIT 1018 AT END OF TIME STEP    1, STRESS PERIOD    1


  VOLUME BUDGET FOR ENTIRE MODEL AT END OF TIME STEP    1, STRESS PERIOD   1
  ---------------------------------------------------------------------------------------------------

     CUMULATIVE VOLUME      L**3       RATES FOR THIS TIME STEP      L**3/T          PACKAGE NAME    
     ------------------                 ------------------------                     ----------------

           IN:                                      IN:
           ---                                      ---
                 CHD =           0.0000                   CHD =           0.0000     CHD2                             
        FLOW-JA-FACE =       75005.0742          FLOW-JA-FACE =       75005.0742     GWF-GWF_1                        

            TOTAL IN =       75005.0742              TOTAL IN =       75005.0742

          OUT:                                     OUT:
          ----                                     ----
                 CHD =       75005.0714                   CHD =       75005.0714     CHD2                             
        FLOW-JA-FACE =           0.0000          FLOW-JA-FACE =           0.0000     GWF-GWF_1                        

           TOTAL OUT =       75005.0714             TOTAL OUT =       75005.0714

            IN - OUT =       2.7522E-03              IN - OUT =       2.7522E-03

 PERCENT DISCREPANCY =           0.00     PERCENT DISCREPANCY =           0.00




         TIME SUMMARY AT END OF TIME STEP    1 IN STRESS PERIOD    1
                    SECONDS     MINUTES      HOURS       DAYS        YEARS
                    -----------------------------------------------------------
   TIME STEP LENGTH  86400.      1440.0      24.000      1.0000     2.73785E-03
 STRESS PERIOD TIME  86400.      1440.0      24.000      1.0000     2.73785E-03
         TOTAL TIME  86400.      1440.0      24.000      1.0000     2.73785E-03


end timestep


start timestep kper="2" kstp="1" mode="normal"


 END OF FILE DETECTED IN OUTPUT CONTROL.
 CURRENT OUTPUT CONTROL SETTINGS WILL BE 
 REPEATED UNTIL THE END OF THE SIMULATION.

 OUTPUT CONTROL FOR STRESS PERIOD 2 IS REPEATED USING SETTINGS FROM A PREVIOUS STRESS PERIOD.

 SLN_1 INNER ITERATION SUMMARY
 --------------------------------------------------------------------------------------------------------------------------------------
      TOTAL      OUTER      INNER                                                            MAXIMUM                                   
  ITERATION  ITERATION  ITERATION  MAXIMUM CHANGE      MAXIMUM CHANGE MODEL-(CELLID)        RESIDUAL    MAXIMUM RESIDUAL MODEL-(CELLID)
 --------------------------------------------------------------------------------------------------------------------------------------
          1          1          1      -52.465750                     2_GWF-(1,10,1)       5866.8296                      2_GWF-(1,9,4)
          2          1          2      -23.711168                      2_GWF-(1,2,1)       4402.2133                      2_GWF-(1,1,2)
          3          1          3      -12.673230                      2_GWF-(1,1,3)       1901.1507                      2_GWF-(1,1,4)
          4          1          4      -2.9750805                      2_GWF-(1,1,4)       662.39801                      2_GWF-(1,2,1)
          5          1          5     -0.61045833                      2_GWF-(1,3,2)       154.17093                      2_GWF-(1,2,2)
          6          1          6     -0.20480649                      2_GWF-(1,6,1)       104.31699                      2_GWF-(1,2,2)
          7          1          7 -8.88490717E-02                      2_GWF-(1,2,3)       17.805195                      2_GWF-(1,3,1)
          8          1          8 -2.01456629E-02                     2_GWF-(1,10,2)       5.1125707                      2_GWF-(1,9,4)
          9          1          9 -4.88794912E-03                      2_GWF-(1,1,4)       2.4703919                      2_GWF-(1,9,4)
         10          1         10 -1.33923134E-03                      2_GWF-(1,3,1)      0.48889427                      2_GWF-(1,8,2)
         11          1         11 -4.64077974E-04                      2_GWF-(1,8,2)      0.17807805                      2_GWF-(1,4,2)
         12          1         12 -1.10976322E-04                      2_GWF-(1,4,2)  4.30359919E-02                      2_GWF-(1,2,3)
         13          1         13 -2.14197371E-05                      2_GWF-(1,2,3)  1.44973573E-02                     2_GWF-(1,10,3)
         14          1         14 -8.84449953E-06                     2_GWF-(1,10,3) -2.90397358E-03                      2_GWF-(1,2,2)
         15          2          1      -5.8930365                      2_GWF-(1,1,2)       412.12751                      2_GWF-(1,1,4)
         16          2          2      -1.7283133                     2_GWF-(1,10,1)      -265.76177                      2_GWF-(1,1,1)
         17          2          3      0.73854323                      2_GWF-(1,1,2)      -118.86860                      2_GWF-(1,1,3)
         18          2          4     -0.26915894                     2_GWF-(1,10,3)       42.805953                      2_GWF-(1,2,3)
         19          2          5  5.25705436E-02                      2_GWF-(1,3,1)      -16.139585                      2_GWF-(1,2,2)
         20          2          6  2.14351281E-02                      2_GWF-(1,2,2)       2.8422302                      2_GWF-(1,3,2)
         21          2          7  4.61517331E-03                     2_GWF-(1,10,2)     -0.79277454                      2_GWF-(1,3,1)
         22          2          8 -1.94115416E-03                      2_GWF-(1,6,1)      0.39852415                     2_GWF-(1,10,3)
         23          2          9 -4.16061963E-04                     2_GWF-(1,10,3)      0.16741580                     2_GWF-(1,10,3)
         24          2         10  2.06331314E-04                      2_GWF-(1,3,1) -3.74314415E-02                      2_GWF-(1,8,1)
         25          2         11 -4.83803144E-05                      2_GWF-(1,6,3) -9.31797388E-03                      2_GWF-(1,4,2)
         26          2         12  1.30644181E-05                      2_GWF-(1,4,2)  3.38651581E-03                      2_GWF-(1,4,1)
         27          3          1       1.3034188                      2_GWF-(1,7,1)       166.59689                     2_GWF-(1,10,4)
         28          3          2      0.55020084                      2_GWF-(1,1,2)      -115.31132                      2_GWF-(1,1,3)
         29          3          3      0.24673602                      2_GWF-(1,1,3)       39.257725                     2_GWF-(1,10,4)
         30          3          4     -0.10268172                     2_GWF-(1,10,3)      -18.751312                      2_GWF-(1,2,2)
         31          3          5  3.46971719E-02                      2_GWF-(1,2,1)      -6.4269456                      2_GWF-(1,2,2)
         32          3          6 -1.04956833E-02                      2_GWF-(1,3,1)       3.5692301                      2_GWF-(1,9,4)
         33          3          7 -5.49971880E-03                      2_GWF-(1,9,4)     -0.73778922                      2_GWF-(1,3,1)
         34          3          8 -1.20055357E-03                      2_GWF-(1,2,1)      0.19671032                      2_GWF-(1,4,1)
         35          3          9  3.75355562E-04                      2_GWF-(1,3,3)  8.23806438E-02                     2_GWF-(1,10,3)
         36          3         10 -9.64812839E-05                      2_GWF-(1,1,2)  2.58763706E-02                     2_GWF-(1,10,3)
         37          3         11  2.74101022E-05                      2_GWF-(1,9,4) -4.05906296E-03                      2_GWF-(1,4,3)
         38          4          1      0.25772787                      2_GWF-(1,3,3)      -29.492926                      2_GWF-(1,1,3)
         39          4          2      0.14967653                     2_GWF-(1,10,3)       23.973468                      2_GWF-(1,1,1)
         40          4          3  6.60488935E-02                     2_GWF-(1,10,1)      -11.022131                      2_GWF-(1,2,2)
         41          4          4  1.66144156E-02                      2_GWF-(1,9,4)      -3.4838418                      2_GWF-(1,9,4)
         42          4          5  6.97353496E-03                      2_GWF-(1,9,4)      -1.1999195                      2_GWF-(1,1,1)
         43          4          6 -1.73989247E-03                      2_GWF-(1,6,1)      0.66160489                      2_GWF-(1,2,1)
         44          4          7  1.07091040E-03                      2_GWF-(1,9,2)      0.12821602                      2_GWF-(1,2,2)
         45          4          8  1.94380840E-04                      2_GWF-(1,7,3) -4.89297578E-02                     2_GWF-(1,10,3)
         46          4          9  8.03416220E-05                     2_GWF-(1,10,3)  1.41801465E-02                      2_GWF-(1,3,1)
         47          4         10 -2.28848400E-05                      2_GWF-(1,3,1)  2.93169242E-03                      2_GWF-(1,2,3)
         48          5          1 -8.47646766E-02                      2_GWF-(1,5,1)       11.482072                      2_GWF-(1,1,2)
         49          5          2 -3.85509283E-02                      2_GWF-(1,1,2)       7.0484937                      2_GWF-(1,1,3)
         50          5          3 -1.65875408E-02                      2_GWF-(1,1,3)      -2.2607688                     2_GWF-(1,10,3)
         51          5          4  4.98339863E-03                     2_GWF-(1,10,3)       1.1883896                      2_GWF-(1,2,1)
         52          5          5 -2.29143520E-03                      2_GWF-(1,2,1)     -0.40048148                      2_GWF-(1,9,4)
         53          5          6  5.76211766E-04                      2_GWF-(1,4,2)     -0.24301516                      2_GWF-(1,9,4)
         54          5          7 -3.44014055E-04                      2_GWF-(1,5,3) -4.63728620E-02                      2_GWF-(1,2,1)
         55          5          8  6.25973649E-05                      2_GWF-(1,2,1) -1.12910823E-02                      2_GWF-(1,4,1)
         56          5          9 -1.98390654E-05                      2_GWF-(1,3,3) -4.76467754E-03                     2_GWF-(1,10,3)
         57          6          1 -1.37386736E-02                      2_GWF-(1,2,3)       1.9751439                     2_GWF-(1,10,3)
         58          6          2 -8.98983926E-03                     2_GWF-(1,10,3)      -1.5423489                      2_GWF-(1,1,2)
         59          6          3 -4.51586167E-03                     2_GWF-(1,10,1)      0.62298768                      2_GWF-(1,2,2)
         60          6          4 -1.28589026E-03                     2_GWF-(1,10,1)      0.24725700                      2_GWF-(1,9,4)
         61          6          5 -4.69086421E-04                      2_GWF-(1,9,4)  8.72595327E-02                      2_GWF-(1,1,1)
         62          6          6 -1.41200567E-04                      2_GWF-(1,9,4) -3.49918306E-02                      2_GWF-(1,2,2)
         63          6          7 -6.42944616E-05                      2_GWF-(1,9,3)  6.81612480E-03                      2_GWF-(1,8,4)
         64          6          8 -1.31410573E-05                      2_GWF-(1,7,3)  3.17411415E-03                     2_GWF-(1,10,3)
 --------------------------------------------------------------------------------------------------------------------------------------


1
  HEAD IN LAYER   1 AT END OF TIME STEP   1 IN STRESS PERIOD    2
  ---------------------------------------------------------------------------

                1               2               3               4               5
 ................................................................................
   1     -8.28221        -13.2464        -19.0146        -26.2213        -40.0000    
   2     -8.28221        -13.2464        -19.0146        -26.2213        -40.0000    
   3     -8.28222        -13.2464        -19.0146        -26.2213        -40.0000    
   4     -8.28222        -13.2464        -19.0146        -26.2213        -40.0000    
   5     -8.28222        -13.2464        -19.0146        -26.2213        -40.0000    
   6     -8.28222        -13.2464        -19.0146        -26.2213        -40.0000    
   7     -8.28222        -13.2464        -19.0146        -26.2213        -40.0000    
   8     -8.28221        -13.2464        -19.0146        -26.2213        -40.0000    
   9     -8.28221        -13.2464        -19.0146        -26.2213        -40.0000    
  10     -8.28221        -13.2464        -19.0146        -26.2213        -40.0000    

 HEAD WILL BE SAVED ON UNIT 1018 AT END OF TIME STEP    1, STRESS PERIOD    2


  VOLUME BUDGET FOR ENTIRE MODEL AT END OF TIME STEP    1, STRESS PERIOD   2
  ---------------------------------------------------------------------------------------------------

     CUMULATIVE VOLUME      L**3       RATES FOR THIS TIME STEP      L**3/T          PACKAGE NAME    
     ------------------                 ------------------------                     ----------------

           IN:                                      IN:
           ---                                      ---
                 CHD =           0.0000                   CHD =           0.0000     CHD2                             
        FLOW-JA-FACE =       94407.5949          FLOW-JA-FACE =       19402.5207     GWF-GWF_1                        

            TOTAL IN =       94407.5949              TOTAL IN =       19402.5207

          OUT:                                     OUT:
          ----                                     ----
                 CHD =       94407.5911                   CHD =       19402.5197     CHD2                             
        FLOW-JA-FACE =           0.0000          FLOW-JA-FACE =           0.0000     GWF-GWF_1                        

           TOTAL OUT =       94407.5911             TOTAL OUT =       19402.5197

            IN - OUT =       3.7458E-03              IN - OUT =       9.9365E-04

 PERCENT DISCREPANCY =           0.00     PERCENT DISCREPANCY =           0.00




         TIME SUMMARY AT END OF TIME STEP    1 IN STRESS PERIOD    2
                    SECONDS     MINUTES      HOURS       DAYS        YEARS
                    -----------------------------------------------------------
   TIME STEP LENGTH  86400.      1440.0      24.000      1.0000     2.73785E-03
 STRESS PERIOD TIME  86400.      1440.0      24.000      1.0000     2.73785E-03
         TOTAL TIME 1.72800E+05  2880.0      48.000      2.0000     5.47570E-03


end timestep

