                                   MODFLOW 6
                U.S. GEOLOGICAL SURVEY MODULAR HYDROLOGIC MODEL
                          GROUNDWATER FLOW MODEL (GWF)
                  VERSION 6.5.0.dev0 (preliminary) 07/13/2023
                               ***DEVELOP MODE***

        MODFLOW 6 compiled Oct 18 2023 15:05:49 with GCC version 11.3.0

This software is preliminary or provisional and is subject to 
revision. It is being provided to meet the need for timely best 
science. The software has not received final approval by the U.S. 
Geological Survey (USGS). No warranty, expressed or implied, is made 
by the USGS or the U.S. Government as to the functionality of the 
software and related material nor shall the fact of release 
constitute any such warranty. The software is provided on the 
condition that neither the USGS nor the U.S. Government shall be held 
liable for any damages resulting from the authorized or unauthorized 
use of the software.


As a work of the United States Government, this USGS product is 
in the public domain within the United States. You can copy, 
modify, distribute, and perform the work, even for commercial 
purposes, all without asking permission. Additionally, USGS 
waives copyright and related rights in the work worldwide 
through CC0 1.0 Universal Public Domain Dedication 
(https://creativecommons.org/publicdomain/zero/1.0/).

The following GNU Lesser General Public License (LGPL) libraries
are used in this USGS product:

    SPARSKIT version 2.0
      ilut, luson, and qsplit 
      (https://www-users.cse.umn.edu/~saad/software/SPARSKIT/)

    RCM - Reverse Cuthill McKee Ordering
      (https://people.math.sc.edu/Burkardt/f_src/rcm/rcm.html)

    BLAS - Basic Linear Algebra Subprograms Level 1
      (https://people.math.sc.edu/Burkardt/f_src/blas1_d/blas1_d.html)

    SPARSEKIT - Sparse Matrix Utility Package
      amux, dperm, dvperm, rperm, and cperm
      (https://people.sc.fsu.edu/~jburkardt/f77_src/sparsekit/sparsekit.html)

The following BSD-3 License libraries are used in this USGS product:

    Modern Fortran DAG Library
      Copyright (c) 2018, Jacob Williams
      All rights reserved.
      (https://github.com/jacobwilliams/daglib)

MODFLOW 6 compiler options: -cpp -I src/libmf6core.a.p -I src -I ../src -I
src/libmf6_external.a.p -I /home/mreno/miniconda3/envs/modflow6/include -I
-fdiagnostics-color=always -imultiarch x86_64-linux-gnu -D
_FILE_OFFSET_BITS=64 -D __linux__ -D __WITH_NETCDF__ -mtune=generic
-march=x86-64 -g -O2 -Wall -Wpedantic -Wcharacter-truncation
-Wno-unused-dummy-argument -Wno-intrinsic-shadow -Wno-maybe-uninitialized
-Wno-uninitialized -std=f2008 -fall-intrinsics -fbacktrace -fcheck=all
-ffpe-trap=overflow,zero,invalid -ffpe-summary=overflow
-ffpe-trap=overflow,zero,invalid -fPIC -J src/libmf6core.a.p
-fpre-include=/usr/include/finclude/math-vector-fortran.h

System command used to initiate simulation:
/home/mreno/.clone/usgs/w/netcdf/2/modflow6/bin/mf6

MODFLOW was compiled using uniform precision.

Real Variables
  KIND: 8
  TINY (smallest non-zero value):    2.225074-308
  HUGE (largest value):    1.797693+308
  PRECISION: 15
  SIZE IN BITS: 64

Integer Variables
  KIND: 4
  HUGE (largest value): 2147483647
  SIZE IN BITS: 32

Long Integer Variables
  KIND: 8
  HUGE (largest value): 9223372036854775807
  SIZE IN BITS: 64

Logical Variables
  KIND: 4
  SIZE IN BITS: 32

 NAMEFILE OPTIONS:
 END NAMEFILE OPTIONS:

 DIS -- STRUCTURED GRID DISCRETIZATION PACKAGE, VERSION 2 : 3/27/2014 - INPUT READ FROM MEMPATH: __INPUT__/CSUB_SUB03B/DIS                         


 NPF -- NODE PROPERTY FLOW PACKAGE, VERSION 1, 3/30/2015 INPUT READ FROM MEMPATH: __INPUT__/CSUB_SUB03B/NPF                         

 Setting Discretization Options
 End Setting Discretization Options

 Setting Discretization Dimensions
    NLAY = 3
    NROW = 10
    NCOL = 10
 End Setting Discretization Dimensions

 Setting Discretization Griddata
    DELR set from input file
    DELC set from input file
    TOP set from input file
    BOTM set from input file
 End Setting Discretization Griddata

 Setting NPF Options
 End Setting NPF Options

 Setting NPF Griddata
    ICELLTYPE set from input file
    K set from input file
    K33 set from input file
    K22 not provided.  Setting K22 = K.
 End Setting NPF Griddata


 WEL   -- WEL PACKAGE, VERSION 8, 2/22/2014 INPUT READ FROM MEMPATH: __INPUT__/CSUB_SUB03B/WEL_0                       

 PROCESSING WEL BASE OPTIONS
    LISTS OF WEL CELLS WILL BE PRINTED.
    WEL FLOWS WILL BE PRINTED TO LISTING FILE.
 END OF WEL BASE OPTIONS

 PROCESSING WEL OPTIONS
 END OF WEL OPTIONS

 PROCESSING WEL BASE DIMENSIONS
    MAXBOUND =       4
 END OF WEL BASE DIMENSIONS

 RCH   -- RCH PACKAGE, VERSION 8, 2/22/2014 INPUT READ FROM MEMPATH: __INPUT__/CSUB_SUB03B/RCHA_0                      

 PROCESSING RCH BASE OPTIONS
 END OF RCH BASE OPTIONS

 PROCESSING RCHA OPTIONS
    RECHARGE INPUT WILL BE READ AS ARRAY(S).
 END OF RCHA OPTIONS

 CHD   -- CHD PACKAGE, VERSION 8, 2/22/2014 INPUT READ FROM MEMPATH: __INPUT__/CSUB_SUB03B/CHD_0                       

 PROCESSING CHD BASE OPTIONS
 END OF CHD BASE OPTIONS

 PROCESSING CHD BASE DIMENSIONS
    MAXBOUND =       4
 END OF CHD BASE DIMENSIONS

 IC -- INITIAL CONDITIONS PACKAGE, VERSION 8, 3/28/2015 INPUT READ FROM UNIT 1006
 # File generated by Flopy version 3.5.0.dev0 on 10/18/2023 at 21:00:16.
 PROCESSING GRIDDATA

     INITIAL HEAD =   0.000000    
 END PROCESSING GRIDDATA

 STO -- STORAGE PACKAGE, VERSION 1, 5/19/2014 INPUT READ FROM UNIT 1005


 # File generated by Flopy version 3.5.0.dev0 on 10/18/2023 at 21:00:16.
 PROCESSING STORAGE OPTIONS
    STORAGECOEFFICIENT OPTION:
 Read storage coefficient rather than specific storage
 END OF STORAGE OPTIONS
 PROCESSING GRIDDATA

                 ICONVERT = 0 FOR LAYER 1

                 ICONVERT = 0 FOR LAYER 2

                 ICONVERT = 0 FOR LAYER 3

         SPECIFIC STORAGE =   0.000000    

           SPECIFIC YIELD =  0.1000000     FOR LAYER 1

           SPECIFIC YIELD =   0.000000     FOR LAYER 2

           SPECIFIC YIELD =   0.000000     FOR LAYER 3
 END PROCESSING GRIDDATA

 CSUB -- COMPACTION PACKAGE, VERSION 1, 12/15/2019 INPUT READ FROM UNIT 1012


 # File generated by Flopy version 3.5.0.dev0 on 10/18/2023 at 21:00:16.
 PROCESSING CSUB OPTIONS
    CSUB BOUNDARIES HAVE NAMES IN LAST COLUMN.
    LISTS OF CSUB CELLS WILL BE PRINTED.
    FLOWS WILL BE SAVED TO BUDGET FILE SPECIFIED IN OUTPUT CONTROL

 OPENED csub_sub03b.ib.strain.csv
 FILE TYPE:CSV_OUTPUT   UNIT 1016   STATUS:REPLACE             
 FORMAT:FORMATTED              ACCESS:SEQUENTIAL          
 ACTION:READWRITE           

    CSUB  INTERBED STRAIN CSV  WILL BE SAVED TO FILE: csub_sub03b.ib.strain.csv                                                                                                                                                                                                                                                                                                                                                                                                                                                                                                                                                                                                                                                                                                                                                                                                                                                                                                                                                                                                                                                                                                                                                                                                                                                                                                                                                                                                                                                                                                                                                                                                                                                                                                                                                                                                                                                                                                                                                                                                                                                                                                                                                                                                                                                                                                                                                                                                                                                                                                                                                                                                                                                                                                                                                                                                                                                                                                                                                                                                                                                                                                                                                                                                                                                                                                                                                                                                                                                                                                                                                                                                                                                                                                                                                                                                                                                                                                                                                                                                                                                                                                                                                                                                                                                                                                                                                                                                                                                                                                                                                                                                                                                                                                                                                                                                                                                                                                                                                                                                                                                                                                                                                                               
    OPENED ON UNIT:    1016

 OPENED csub_sub03b.sk.strain.csv
 FILE TYPE:CSV_OUTPUT   UNIT 1017   STATUS:REPLACE             
 FORMAT:FORMATTED              ACCESS:SEQUENTIAL          
 ACTION:READWRITE           

    CSUB  COARSE STRAIN CSV  WILL BE SAVED TO FILE: csub_sub03b.sk.strain.csv                                                                                                                                                                                                                                                                                                                                                                                                                                                                                                                                                                                                                                                                                                                                                                                                                                                                                                                                                                                                                                                                                                                                                                                                                                                                                                                                                                                                                                                                                                                                                                                                                                                                                                                                                                                                                                                                                                                                                                                                                                                                                                                                                                                                                                                                                                                                                                                                                                                                                                                                                                                                                                                                                                                                                                                                                                                                                                                                                                                                                                                                                                                                                                                                                                                                                                                                                                                                                                                                                                                                                                                                                                                                                                                                                                                                                                                                                                                                                                                                                                                                                                                                                                                                                                                                                                                                                                                                                                                                                                                                                                                                                                                                                                                                                                                                                                                                                                                                                                                                                                                                                                                                                                               
    OPENED ON UNIT:    1017

 OPENED csub_sub03b.compaction.gridbin
 FILE TYPE:DATA(BINARY)   UNIT 1018   STATUS:REPLACE             
 FORMAT:UNFORMATTED            ACCESS:STREAM              
 ACTION:READWRITE           

    CSUB  COMPACTION  WILL BE SAVED TO FILE: csub_sub03b.compaction.gridbin                                                                                                                                                                                                                                                                                                                                                                                                                                                                                                                                                                                                                                                                                                                                                                                                                                                                                                                                                                                                                                                                                                                                                                                                                                                                                                                                                                                                                                                                                                                                                                                                                                                                                                                                                                                                                                                                                                                                                                                                                                                                                                                                                                                                                                                                                                                                                                                                                                                                                                                                                                                                                                                                                                                                                                                                                                                                                                                                                                                                                                                                                                                                                                                                                                                                                                                                                                                                                                                                                                                                                                                                                                                                                                                                                                                                                                                                                                                                                                                                                                                                                                                                                                                                                                                                                                                                                                                                                                                                                                                                                                                                                                                                                                                                                                                                                                                                                                                                                                                                                                                                                                                                                                          
    OPENED ON UNIT:    1018

 OPENED csub_sub03b.csub.obs
 FILE TYPE:OBS   UNIT 1019   STATUS:OLD                 
 FORMAT:FORMATTED              ACCESS:SEQUENTIAL          
 ACTION:READ                

 END OF CSUB OPTIONS


 CSUB PACKAGE SETTINGS
    NUMBER OF DELAY CELLS = 39
    HEAD-BASED FORMULATION
    ELASTIC AND INELASTIC SPECIFIC STORAGE COEFFICIENTS WILL BE 
      SPECIFIED
    THICKNESS AND VOID RATIO WILL NOT BE ADJUSTED DURING THE
      SIMULATION
    INTERBED THICKNESS WILL BE SPECIFIED AS A THICKNESS
    PRECONSOLIDATION HEAD WILL BE SPECIFIED AS ABSOLUTE VALUES
      INSTEAD OF RELATIVE TO INITIAL HEAD CONDITIONS
    DELAY INTERBED HEADS WILL BE SPECIFIED AS ABSOLUTE VALUES INSTEAD
      OF RELATIVE TO INITIAL GWF HEADS
    EFFECTIVE_STRESS_LAG HAS BEEN SPECIFIED BUT HAS NO EFFECT WHEN
      USING THE HEAD-BASED FORMULATION (HEAD_BASED HAS BEEN SPECIFIED
      IN THE OPTIONS BLOCK)
    GAMMAW        = 9806.6499999999996
    BETA          = 0.0000000000000000
    GAMMAW * BETA = 0.0000000000000000

 PROCESSING CSUB DIMENSIONS
    NINTERBEDS = 492
 END OF CSUB DIMENSIONS

The observation utility is active for "CSUB"
 # File generated by Flopy version 3.5.0.dev0 on 10/18/2023 at 21:00:16.

Processing observation options:

Text output number of digits of precision set to: 10
The PRINT_INPUT option has been specified.


 OBSERVATIONS READ FROM FILE "csub_sub03b.csub.obs"
 ----------------------------------------------------------------------------------------------------------------------------------------------------------------------------------------------------------------------------
 NAME                                     TYPE                                       TIME         LOCATION DATA                              OUTPUT FILENAME                                                                 
 ----------------------------------------------------------------------------------------------------------------------------------------------------------------------------------------------------------------------------
 TCOMP1                                   CONTINUOUS  INTERBED-COMPACTION            ALL TIMES    "  01_05_05"                               csub_obs.csv                                                                    
 TCOMP2                                   CONTINUOUS  INTERBED-COMPACTION            ALL TIMES    "  02_05_05"                               csub_obs.csv                                                                    
 TCOMP3                                   CONTINUOUS  INTERBED-COMPACTION            ALL TIMES    "  03_05_05"                               csub_obs.csv                                                                    
 ----------------------------------------------------------------------------------------------------------------------------------------------------------------------------------------------------------------------------



 CG_SKE_CR =  0.3000000E-05 FOR LAYER 1

 CG_SKE_CR =   0.000000     FOR LAYER 2

 CG_SKE_CR =  0.3000000E-05 FOR LAYER 3

 CG_THETA =  0.2000000    

 PROCESSING CSUB PACKAGEDATA
 END OF CSUB PACKAGEDATA

 CSUB PACKAGE INTERBED DATA
 ---------------------------------------------------------------------------------------------------------------------------------------------------------------------------
 INTERBED          CELLID          CDELAY      PCS       THICK       RNB       SSV_CC     SSV_CR     THETA        KV         H0     BOUNDNAME                               
 ---------------------------------------------------------------------------------------------------------------------------------------------------------------------------
 1                (1,1,1)         NODELAY   -7.00       15.0       1.00       6.000E-04  6.000E-06  0.451         -          -      01_01_01                                
 2                (1,1,2)         NODELAY   -7.00       15.0       1.00       6.000E-04  6.000E-06  0.451         -          -      01_01_02                                
 3                (1,1,3)         NODELAY   -7.00       15.0       1.00       6.000E-04  6.000E-06  0.451         -          -      01_01_03                                
 4                (1,1,4)         NODELAY   -7.00       15.0       1.00       6.000E-04  6.000E-06  0.451         -          -      01_01_04                                
 5                (1,1,5)         NODELAY   -7.00       15.0       1.00       6.000E-04  6.000E-06  0.451         -          -      01_01_05                                
 6                (1,1,6)         NODELAY   -7.00       15.0       1.00       6.000E-04  6.000E-06  0.451         -          -      01_01_06                                
 7                (1,1,7)         NODELAY   -7.00       15.0       1.00       6.000E-04  6.000E-06  0.451         -          -      01_01_07                                
 8                (1,1,8)         NODELAY   -7.00       15.0       1.00       6.000E-04  6.000E-06  0.451         -          -      01_01_08                                
 9                (1,1,9)         NODELAY   -7.00       15.0       1.00       6.000E-04  6.000E-06  0.451         -          -      01_01_09                                
 10               (1,1,10)        NODELAY   -7.00       15.0       1.00       6.000E-04  6.000E-06  0.451         -          -      01_01_10                                
 11               (1,2,1)         NODELAY   -7.00       15.0       1.00       6.000E-04  6.000E-06  0.451         -          -      01_02_01                                
 12               (1,2,2)         NODELAY   -7.00       15.0       1.00       6.000E-04  6.000E-06  0.451         -          -      01_02_02                                
 13               (1,2,3)         NODELAY   -7.00       15.0       1.00       6.000E-04  6.000E-06  0.451         -          -      01_02_03                                
 14               (1,2,4)         NODELAY   -7.00       15.0       1.00       6.000E-04  6.000E-06  0.451         -          -      01_02_04                                
 15               (1,2,5)         NODELAY   -7.00       15.0       1.00       6.000E-04  6.000E-06  0.451         -          -      01_02_05                                
 16               (1,2,6)         NODELAY   -7.00       15.0       1.00       6.000E-04  6.000E-06  0.451         -          -      01_02_06                                
 17               (1,2,7)         NODELAY   -7.00       15.0       1.00       6.000E-04  6.000E-06  0.451         -          -      01_02_07                                
 18               (1,2,8)         NODELAY   -7.00       15.0       1.00       6.000E-04  6.000E-06  0.451         -          -      01_02_08                                
 19               (1,2,9)         NODELAY   -7.00       15.0       1.00       6.000E-04  6.000E-06  0.451         -          -      01_02_09                                
 20               (1,2,10)        NODELAY   -7.00       15.0       1.00       6.000E-04  6.000E-06  0.451         -          -      01_02_10                                
 21               (1,3,1)         NODELAY   -7.00       15.0       1.00       6.000E-04  6.000E-06  0.451         -          -      01_03_01                                
 22               (1,3,2)         NODELAY   -7.00       15.0       1.00       6.000E-04  6.000E-06  0.451         -          -      01_03_02                                
 23               (1,3,3)         NODELAY   -7.00       15.0       1.00       6.000E-04  6.000E-06  0.451         -          -      01_03_03                                
 24               (1,3,4)         NODELAY   -7.00       15.0       1.00       6.000E-04  6.000E-06  0.451         -          -      01_03_04                                
 25               (1,3,5)         NODELAY   -7.00       15.0       1.00       6.000E-04  6.000E-06  0.451         -          -      01_03_05                                
 26               (1,3,6)         NODELAY   -7.00       15.0       1.00       6.000E-04  6.000E-06  0.451         -          -      01_03_06                                
 27               (1,3,7)         NODELAY   -7.00       15.0       1.00       6.000E-04  6.000E-06  0.451         -          -      01_03_07                                
 28               (1,3,8)         NODELAY   -7.00       15.0       1.00       6.000E-04  6.000E-06  0.451         -          -      01_03_08                                
 29               (1,3,9)         NODELAY   -7.00       15.0       1.00       6.000E-04  6.000E-06  0.451         -          -      01_03_09                                
 30               (1,3,10)        NODELAY   -7.00       15.0       1.00       6.000E-04  6.000E-06  0.451         -          -      01_03_10                                
 31               (1,4,1)         NODELAY   -7.00       15.0       1.00       6.000E-04  6.000E-06  0.451         -          -      01_04_01                                
 32               (1,4,2)         NODELAY   -7.00       15.0       1.00       6.000E-04  6.000E-06  0.451         -          -      01_04_02                                
 33               (1,4,3)         NODELAY   -7.00       15.0       1.00       6.000E-04  6.000E-06  0.451         -          -      01_04_03                                
 34               (1,4,4)         NODELAY   -7.00       15.0       1.00       6.000E-04  6.000E-06  0.451         -          -      01_04_04                                
 35               (1,4,5)         NODELAY   -7.00       15.0       1.00       6.000E-04  6.000E-06  0.451         -          -      01_04_05                                
 36               (1,4,6)         NODELAY   -7.00       15.0       1.00       6.000E-04  6.000E-06  0.451         -          -      01_04_06                                
 37               (1,4,7)         NODELAY   -7.00       15.0       1.00       6.000E-04  6.000E-06  0.451         -          -      01_04_07                                
 38               (1,4,8)         NODELAY   -7.00       15.0       1.00       6.000E-04  6.000E-06  0.451         -          -      01_04_08                                
 39               (1,4,9)         NODELAY   -7.00       15.0       1.00       6.000E-04  6.000E-06  0.451         -          -      01_04_09                                
 40               (1,4,10)        NODELAY   -7.00       15.0       1.00       6.000E-04  6.000E-06  0.451         -          -      01_04_10                                
 41               (1,5,1)         NODELAY   -7.00       15.0       1.00       6.000E-04  6.000E-06  0.451         -          -      01_05_01                                
 42               (1,5,2)         NODELAY   -7.00       15.0       1.00       6.000E-04  6.000E-06  0.451         -          -      01_05_02                                
 43               (1,5,3)         NODELAY   -7.00       15.0       1.00       6.000E-04  6.000E-06  0.451         -          -      01_05_03                                
 44               (1,5,4)         NODELAY   -7.00       15.0       1.00       6.000E-04  6.000E-06  0.451         -          -      01_05_04                                
 45               (1,5,5)         NODELAY   -7.00       15.0       1.00       6.000E-04  6.000E-06  0.451         -          -      01_05_05                                
 46               (1,5,6)         NODELAY   -7.00       15.0       1.00       6.000E-04  6.000E-06  0.451         -          -      01_05_06                                
 47               (1,5,7)         NODELAY   -7.00       15.0       1.00       6.000E-04  6.000E-06  0.451         -          -      01_05_07                                
 48               (1,5,8)         NODELAY   -7.00       15.0       1.00       6.000E-04  6.000E-06  0.451         -          -      01_05_08                                
 49               (1,5,9)         NODELAY   -7.00       15.0       1.00       6.000E-04  6.000E-06  0.451         -          -      01_05_09                                
 50               (1,5,10)        NODELAY   -7.00       15.0       1.00       6.000E-04  6.000E-06  0.451         -          -      01_05_10                                
 51               (1,6,1)         NODELAY   -7.00       15.0       1.00       6.000E-04  6.000E-06  0.451         -          -      01_06_01                                
 52               (1,6,2)         NODELAY   -7.00       15.0       1.00       6.000E-04  6.000E-06  0.451         -          -      01_06_02                                
 53               (1,6,3)         NODELAY   -7.00       15.0       1.00       6.000E-04  6.000E-06  0.451         -          -      01_06_03                                
 54               (1,6,4)         NODELAY   -7.00       15.0       1.00       6.000E-04  6.000E-06  0.451         -          -      01_06_04                                
 55               (1,6,5)         NODELAY   -7.00       15.0       1.00       6.000E-04  6.000E-06  0.451         -          -      01_06_05                                
 56               (1,6,6)         NODELAY   -7.00       15.0       1.00       6.000E-04  6.000E-06  0.451         -          -      01_06_06                                
 57               (1,6,7)         NODELAY   -7.00       15.0       1.00       6.000E-04  6.000E-06  0.451         -          -      01_06_07                                
 58               (1,6,8)         NODELAY   -7.00       15.0       1.00       6.000E-04  6.000E-06  0.451         -          -      01_06_08                                
 59               (1,6,9)         NODELAY   -7.00       15.0       1.00       6.000E-04  6.000E-06  0.451         -          -      01_06_09                                
 60               (1,6,10)        NODELAY   -7.00       15.0       1.00       6.000E-04  6.000E-06  0.451         -          -      01_06_10                                
 61               (1,7,1)         NODELAY   -7.00       15.0       1.00       6.000E-04  6.000E-06  0.451         -          -      01_07_01                                
 62               (1,7,2)         NODELAY   -7.00       15.0       1.00       6.000E-04  6.000E-06  0.451         -          -      01_07_02                                
 63               (1,7,3)         NODELAY   -7.00       15.0       1.00       6.000E-04  6.000E-06  0.451         -          -      01_07_03                                
 64               (1,7,4)         NODELAY   -7.00       15.0       1.00       6.000E-04  6.000E-06  0.451         -          -      01_07_04                                
 65               (1,7,5)         NODELAY   -7.00       15.0       1.00       6.000E-04  6.000E-06  0.451         -          -      01_07_05                                
 66               (1,7,6)         NODELAY   -7.00       15.0       1.00       6.000E-04  6.000E-06  0.451         -          -      01_07_06                                
 67               (1,7,7)         NODELAY   -7.00       15.0       1.00       6.000E-04  6.000E-06  0.451         -          -      01_07_07                                
 68               (1,7,8)         NODELAY   -7.00       15.0       1.00       6.000E-04  6.000E-06  0.451         -          -      01_07_08                                
 69               (1,7,9)         NODELAY   -7.00       15.0       1.00       6.000E-04  6.000E-06  0.451         -          -      01_07_09                                
 70               (1,7,10)        NODELAY   -7.00       15.0       1.00       6.000E-04  6.000E-06  0.451         -          -      01_07_10                                
 71               (1,8,1)         NODELAY   -7.00       15.0       1.00       6.000E-04  6.000E-06  0.451         -          -      01_08_01                                
 72               (1,8,2)         NODELAY   -7.00       15.0       1.00       6.000E-04  6.000E-06  0.451         -          -      01_08_02                                
 73               (1,8,3)         NODELAY   -7.00       15.0       1.00       6.000E-04  6.000E-06  0.451         -          -      01_08_03                                
 74               (1,8,4)         NODELAY   -7.00       15.0       1.00       6.000E-04  6.000E-06  0.451         -          -      01_08_04                                
 75               (1,8,5)         NODELAY   -7.00       15.0       1.00       6.000E-04  6.000E-06  0.451         -          -      01_08_05                                
 76               (1,8,6)         NODELAY   -7.00       15.0       1.00       6.000E-04  6.000E-06  0.451         -          -      01_08_06                                
 77               (1,8,7)         NODELAY   -7.00       15.0       1.00       6.000E-04  6.000E-06  0.451         -          -      01_08_07                                
 78               (1,8,8)         NODELAY   -7.00       15.0       1.00       6.000E-04  6.000E-06  0.451         -          -      01_08_08                                
 79               (1,8,9)         NODELAY   -7.00       15.0       1.00       6.000E-04  6.000E-06  0.451         -          -      01_08_09                                
 80               (1,8,10)        NODELAY   -7.00       15.0       1.00       6.000E-04  6.000E-06  0.451         -          -      01_08_10                                
 81               (1,9,1)         NODELAY   -7.00       15.0       1.00       6.000E-04  6.000E-06  0.451         -          -      01_09_01                                
 82               (1,9,2)         NODELAY   -7.00       15.0       1.00       6.000E-04  6.000E-06  0.451         -          -      01_09_02                                
 83               (1,9,3)         NODELAY   -7.00       15.0       1.00       6.000E-04  6.000E-06  0.451         -          -      01_09_03                                
 84               (1,9,4)         NODELAY   -7.00       15.0       1.00       6.000E-04  6.000E-06  0.451         -          -      01_09_04                                
 85               (1,9,5)         NODELAY   -7.00       15.0       1.00       6.000E-04  6.000E-06  0.451         -          -      01_09_05                                
 86               (1,9,6)         NODELAY   -7.00       15.0       1.00       6.000E-04  6.000E-06  0.451         -          -      01_09_06                                
 87               (1,9,7)         NODELAY   -7.00       15.0       1.00       6.000E-04  6.000E-06  0.451         -          -      01_09_07                                
 88               (1,9,8)         NODELAY   -7.00       15.0       1.00       6.000E-04  6.000E-06  0.451         -          -      01_09_08                                
 89               (1,9,9)         NODELAY   -7.00       15.0       1.00       6.000E-04  6.000E-06  0.451         -          -      01_09_09                                
 90               (1,9,10)        NODELAY   -7.00       15.0       1.00       6.000E-04  6.000E-06  0.451         -          -      01_09_10                                
 91               (1,10,1)        NODELAY   -7.00       15.0       1.00       6.000E-04  6.000E-06  0.451         -          -      01_10_01                                
 92               (1,10,2)        NODELAY   -7.00       15.0       1.00       6.000E-04  6.000E-06  0.451         -          -      01_10_02                                
 93               (1,10,3)        NODELAY   -7.00       15.0       1.00       6.000E-04  6.000E-06  0.451         -          -      01_10_03                                
 94               (1,10,8)        NODELAY   -7.00       15.0       1.00       6.000E-04  6.000E-06  0.451         -          -      01_10_08                                
 95               (1,10,9)        NODELAY   -7.00       15.0       1.00       6.000E-04  6.000E-06  0.451         -          -      01_10_09                                
 96              (1,10,10)        NODELAY   -7.00       15.0       1.00       6.000E-04  6.000E-06  0.451         -          -      01_10_10                                
 97               (2,1,1)         NODELAY   -7.00       50.0       1.00       3.000E-04  3.000E-06  0.451         -          -      02_01_01                                
 98               (2,1,2)         NODELAY   -7.00       50.0       1.00       3.000E-04  3.000E-06  0.451         -          -      02_01_02                                
 99               (2,1,3)         NODELAY   -7.00       50.0       1.00       3.000E-04  3.000E-06  0.451         -          -      02_01_03                                
 100              (2,1,4)         NODELAY   -7.00       50.0       1.00       3.000E-04  3.000E-06  0.451         -          -      02_01_04                                
 101              (2,1,5)         NODELAY   -7.00       50.0       1.00       3.000E-04  3.000E-06  0.451         -          -      02_01_05                                
 102              (2,1,6)         NODELAY   -7.00       50.0       1.00       3.000E-04  3.000E-06  0.451         -          -      02_01_06                                
 103              (2,1,7)         NODELAY   -7.00       50.0       1.00       3.000E-04  3.000E-06  0.451         -          -      02_01_07                                
 104              (2,1,8)         NODELAY   -7.00       50.0       1.00       3.000E-04  3.000E-06  0.451         -          -      02_01_08                                
 105              (2,1,9)         NODELAY   -7.00       50.0       1.00       3.000E-04  3.000E-06  0.451         -          -      02_01_09                                
 106              (2,1,10)        NODELAY   -7.00       50.0       1.00       3.000E-04  3.000E-06  0.451         -          -      02_01_10                                
 107              (2,2,1)         NODELAY   -7.00       50.0       1.00       3.000E-04  3.000E-06  0.451         -          -      02_02_01                                
 108              (2,2,2)         NODELAY   -7.00       50.0       1.00       3.000E-04  3.000E-06  0.451         -          -      02_02_02                                
 109              (2,2,3)         NODELAY   -7.00       50.0       1.00       3.000E-04  3.000E-06  0.451         -          -      02_02_03                                
 110              (2,2,4)         NODELAY   -7.00       50.0       1.00       3.000E-04  3.000E-06  0.451         -          -      02_02_04                                
 111              (2,2,5)         NODELAY   -7.00       50.0       1.00       3.000E-04  3.000E-06  0.451         -          -      02_02_05                                
 112              (2,2,6)         NODELAY   -7.00       50.0       1.00       3.000E-04  3.000E-06  0.451         -          -      02_02_06                                
 113              (2,2,7)         NODELAY   -7.00       50.0       1.00       3.000E-04  3.000E-06  0.451         -          -      02_02_07                                
 114              (2,2,8)         NODELAY   -7.00       50.0       1.00       3.000E-04  3.000E-06  0.451         -          -      02_02_08                                
 115              (2,2,9)         NODELAY   -7.00       50.0       1.00       3.000E-04  3.000E-06  0.451         -          -      02_02_09                                
 116              (2,2,10)        NODELAY   -7.00       50.0       1.00       3.000E-04  3.000E-06  0.451         -          -      02_02_10                                
 117              (2,3,1)         NODELAY   -7.00       50.0       1.00       3.000E-04  3.000E-06  0.451         -          -      02_03_01                                
 118              (2,3,2)         NODELAY   -7.00       50.0       1.00       3.000E-04  3.000E-06  0.451         -          -      02_03_02                                
 119              (2,3,3)         NODELAY   -7.00       50.0       1.00       3.000E-04  3.000E-06  0.451         -          -      02_03_03                                
 120              (2,3,4)         NODELAY   -7.00       50.0       1.00       3.000E-04  3.000E-06  0.451         -          -      02_03_04                                
 121              (2,3,5)         NODELAY   -7.00       50.0       1.00       3.000E-04  3.000E-06  0.451         -          -      02_03_05                                
 122              (2,3,6)         NODELAY   -7.00       50.0       1.00       3.000E-04  3.000E-06  0.451         -          -      02_03_06                                
 123              (2,3,7)         NODELAY   -7.00       50.0       1.00       3.000E-04  3.000E-06  0.451         -          -      02_03_07                                
 124              (2,3,8)         NODELAY   -7.00       50.0       1.00       3.000E-04  3.000E-06  0.451         -          -      02_03_08                                
 125              (2,3,9)         NODELAY   -7.00       50.0       1.00       3.000E-04  3.000E-06  0.451         -          -      02_03_09                                
 126              (2,3,10)        NODELAY   -7.00       50.0       1.00       3.000E-04  3.000E-06  0.451         -          -      02_03_10                                
 127              (2,4,1)         NODELAY   -7.00       50.0       1.00       3.000E-04  3.000E-06  0.451         -          -      02_04_01                                
 128              (2,4,2)         NODELAY   -7.00       50.0       1.00       3.000E-04  3.000E-06  0.451         -          -      02_04_02                                
 129              (2,4,3)         NODELAY   -7.00       50.0       1.00       3.000E-04  3.000E-06  0.451         -          -      02_04_03                                
 130              (2,4,4)         NODELAY   -7.00       50.0       1.00       3.000E-04  3.000E-06  0.451         -          -      02_04_04                                
 131              (2,4,5)         NODELAY   -7.00       50.0       1.00       3.000E-04  3.000E-06  0.451         -          -      02_04_05                                
 132              (2,4,6)         NODELAY   -7.00       50.0       1.00       3.000E-04  3.000E-06  0.451         -          -      02_04_06                                
 133              (2,4,7)         NODELAY   -7.00       50.0       1.00       3.000E-04  3.000E-06  0.451         -          -      02_04_07                                
 134              (2,4,8)         NODELAY   -7.00       50.0       1.00       3.000E-04  3.000E-06  0.451         -          -      02_04_08                                
 135              (2,4,9)         NODELAY   -7.00       50.0       1.00       3.000E-04  3.000E-06  0.451         -          -      02_04_09                                
 136              (2,4,10)        NODELAY   -7.00       50.0       1.00       3.000E-04  3.000E-06  0.451         -          -      02_04_10                                
 137              (2,5,1)         NODELAY   -7.00       50.0       1.00       3.000E-04  3.000E-06  0.451         -          -      02_05_01                                
 138              (2,5,2)         NODELAY   -7.00       50.0       1.00       3.000E-04  3.000E-06  0.451         -          -      02_05_02                                
 139              (2,5,3)         NODELAY   -7.00       50.0       1.00       3.000E-04  3.000E-06  0.451         -          -      02_05_03                                
 140              (2,5,4)         NODELAY   -7.00       50.0       1.00       3.000E-04  3.000E-06  0.451         -          -      02_05_04                                
 141              (2,5,5)         NODELAY   -7.00       50.0       1.00       3.000E-04  3.000E-06  0.451         -          -      02_05_05                                
 142              (2,5,6)         NODELAY   -7.00       50.0       1.00       3.000E-04  3.000E-06  0.451         -          -      02_05_06                                
 143              (2,5,7)         NODELAY   -7.00       50.0       1.00       3.000E-04  3.000E-06  0.451         -          -      02_05_07                                
 144              (2,5,8)         NODELAY   -7.00       50.0       1.00       3.000E-04  3.000E-06  0.451         -          -      02_05_08                                
 145              (2,5,9)         NODELAY   -7.00       50.0       1.00       3.000E-04  3.000E-06  0.451         -          -      02_05_09                                
 146              (2,5,10)        NODELAY   -7.00       50.0       1.00       3.000E-04  3.000E-06  0.451         -          -      02_05_10                                
 147              (2,6,1)         NODELAY   -7.00       50.0       1.00       3.000E-04  3.000E-06  0.451         -          -      02_06_01                                
 148              (2,6,2)         NODELAY   -7.00       50.0       1.00       3.000E-04  3.000E-06  0.451         -          -      02_06_02                                
 149              (2,6,3)         NODELAY   -7.00       50.0       1.00       3.000E-04  3.000E-06  0.451         -          -      02_06_03                                
 150              (2,6,4)         NODELAY   -7.00       50.0       1.00       3.000E-04  3.000E-06  0.451         -          -      02_06_04                                
 151              (2,6,5)         NODELAY   -7.00       50.0       1.00       3.000E-04  3.000E-06  0.451         -          -      02_06_05                                
 152              (2,6,6)         NODELAY   -7.00       50.0       1.00       3.000E-04  3.000E-06  0.451         -          -      02_06_06                                
 153              (2,6,7)         NODELAY   -7.00       50.0       1.00       3.000E-04  3.000E-06  0.451         -          -      02_06_07                                
 154              (2,6,8)         NODELAY   -7.00       50.0       1.00       3.000E-04  3.000E-06  0.451         -          -      02_06_08                                
 155              (2,6,9)         NODELAY   -7.00       50.0       1.00       3.000E-04  3.000E-06  0.451         -          -      02_06_09                                
 156              (2,6,10)        NODELAY   -7.00       50.0       1.00       3.000E-04  3.000E-06  0.451         -          -      02_06_10                                
 157              (2,7,1)         NODELAY   -7.00       50.0       1.00       3.000E-04  3.000E-06  0.451         -          -      02_07_01                                
 158              (2,7,2)         NODELAY   -7.00       50.0       1.00       3.000E-04  3.000E-06  0.451         -          -      02_07_02                                
 159              (2,7,3)         NODELAY   -7.00       50.0       1.00       3.000E-04  3.000E-06  0.451         -          -      02_07_03                                
 160              (2,7,4)         NODELAY   -7.00       50.0       1.00       3.000E-04  3.000E-06  0.451         -          -      02_07_04                                
 161              (2,7,5)         NODELAY   -7.00       50.0       1.00       3.000E-04  3.000E-06  0.451         -          -      02_07_05                                
 162              (2,7,6)         NODELAY   -7.00       50.0       1.00       3.000E-04  3.000E-06  0.451         -          -      02_07_06                                
 163              (2,7,7)         NODELAY   -7.00       50.0       1.00       3.000E-04  3.000E-06  0.451         -          -      02_07_07                                
 164              (2,7,8)         NODELAY   -7.00       50.0       1.00       3.000E-04  3.000E-06  0.451         -          -      02_07_08                                
 165              (2,7,9)         NODELAY   -7.00       50.0       1.00       3.000E-04  3.000E-06  0.451         -          -      02_07_09                                
 166              (2,7,10)        NODELAY   -7.00       50.0       1.00       3.000E-04  3.000E-06  0.451         -          -      02_07_10                                
 167              (2,8,1)         NODELAY   -7.00       50.0       1.00       3.000E-04  3.000E-06  0.451         -          -      02_08_01                                
 168              (2,8,2)         NODELAY   -7.00       50.0       1.00       3.000E-04  3.000E-06  0.451         -          -      02_08_02                                
 169              (2,8,3)         NODELAY   -7.00       50.0       1.00       3.000E-04  3.000E-06  0.451         -          -      02_08_03                                
 170              (2,8,4)         NODELAY   -7.00       50.0       1.00       3.000E-04  3.000E-06  0.451         -          -      02_08_04                                
 171              (2,8,5)         NODELAY   -7.00       50.0       1.00       3.000E-04  3.000E-06  0.451         -          -      02_08_05                                
 172              (2,8,6)         NODELAY   -7.00       50.0       1.00       3.000E-04  3.000E-06  0.451         -          -      02_08_06                                
 173              (2,8,7)         NODELAY   -7.00       50.0       1.00       3.000E-04  3.000E-06  0.451         -          -      02_08_07                                
 174              (2,8,8)         NODELAY   -7.00       50.0       1.00       3.000E-04  3.000E-06  0.451         -          -      02_08_08                                
 175              (2,8,9)         NODELAY   -7.00       50.0       1.00       3.000E-04  3.000E-06  0.451         -          -      02_08_09                                
 176              (2,8,10)        NODELAY   -7.00       50.0       1.00       3.000E-04  3.000E-06  0.451         -          -      02_08_10                                
 177              (2,9,1)         NODELAY   -7.00       50.0       1.00       3.000E-04  3.000E-06  0.451         -          -      02_09_01                                
 178              (2,9,2)         NODELAY   -7.00       50.0       1.00       3.000E-04  3.000E-06  0.451         -          -      02_09_02                                
 179              (2,9,3)         NODELAY   -7.00       50.0       1.00       3.000E-04  3.000E-06  0.451         -          -      02_09_03                                
 180              (2,9,4)         NODELAY   -7.00       50.0       1.00       3.000E-04  3.000E-06  0.451         -          -      02_09_04                                
 181              (2,9,5)         NODELAY   -7.00       50.0       1.00       3.000E-04  3.000E-06  0.451         -          -      02_09_05                                
 182              (2,9,6)         NODELAY   -7.00       50.0       1.00       3.000E-04  3.000E-06  0.451         -          -      02_09_06                                
 183              (2,9,7)         NODELAY   -7.00       50.0       1.00       3.000E-04  3.000E-06  0.451         -          -      02_09_07                                
 184              (2,9,8)         NODELAY   -7.00       50.0       1.00       3.000E-04  3.000E-06  0.451         -          -      02_09_08                                
 185              (2,9,9)         NODELAY   -7.00       50.0       1.00       3.000E-04  3.000E-06  0.451         -          -      02_09_09                                
 186              (2,9,10)        NODELAY   -7.00       50.0       1.00       3.000E-04  3.000E-06  0.451         -          -      02_09_10                                
 187              (2,10,1)        NODELAY   -7.00       50.0       1.00       3.000E-04  3.000E-06  0.451         -          -      02_10_01                                
 188              (2,10,2)        NODELAY   -7.00       50.0       1.00       3.000E-04  3.000E-06  0.451         -          -      02_10_02                                
 189              (2,10,3)        NODELAY   -7.00       50.0       1.00       3.000E-04  3.000E-06  0.451         -          -      02_10_03                                
 190              (2,10,4)        NODELAY   -7.00       50.0       1.00       3.000E-04  3.000E-06  0.451         -          -      02_10_04                                
 191              (2,10,5)        NODELAY   -7.00       50.0       1.00       3.000E-04  3.000E-06  0.451         -          -      02_10_05                                
 192              (2,10,6)        NODELAY   -7.00       50.0       1.00       3.000E-04  3.000E-06  0.451         -          -      02_10_06                                
 193              (2,10,7)        NODELAY   -7.00       50.0       1.00       3.000E-04  3.000E-06  0.451         -          -      02_10_07                                
 194              (2,10,8)        NODELAY   -7.00       50.0       1.00       3.000E-04  3.000E-06  0.451         -          -      02_10_08                                
 195              (2,10,9)        NODELAY   -7.00       50.0       1.00       3.000E-04  3.000E-06  0.451         -          -      02_10_09                                
 196             (2,10,10)        NODELAY   -7.00       50.0       1.00       3.000E-04  3.000E-06  0.451         -          -      02_10_10                                
 197              (3,1,1)         NODELAY   -7.00       30.0       1.00       6.000E-04  6.000E-06  0.451         -          -      03_01_01                                
 198              (3,1,2)         NODELAY   -7.00       30.0       1.00       6.000E-04  6.000E-06  0.451         -          -      03_01_02                                
 199              (3,1,3)         NODELAY   -7.00       30.0       1.00       6.000E-04  6.000E-06  0.451         -          -      03_01_03                                
 200              (3,1,4)         NODELAY   -7.00       30.0       1.00       6.000E-04  6.000E-06  0.451         -          -      03_01_04                                
 201              (3,1,5)         NODELAY   -7.00       30.0       1.00       6.000E-04  6.000E-06  0.451         -          -      03_01_05                                
 202              (3,1,6)         NODELAY   -7.00       30.0       1.00       6.000E-04  6.000E-06  0.451         -          -      03_01_06                                
 203              (3,1,7)         NODELAY   -7.00       30.0       1.00       6.000E-04  6.000E-06  0.451         -          -      03_01_07                                
 204              (3,1,8)         NODELAY   -7.00       30.0       1.00       6.000E-04  6.000E-06  0.451         -          -      03_01_08                                
 205              (3,1,9)         NODELAY   -7.00       30.0       1.00       6.000E-04  6.000E-06  0.451         -          -      03_01_09                                
 206              (3,1,10)        NODELAY   -7.00       30.0       1.00       6.000E-04  6.000E-06  0.451         -          -      03_01_10                                
 207              (3,2,1)         NODELAY   -7.00       30.0       1.00       6.000E-04  6.000E-06  0.451         -          -      03_02_01                                
 208              (3,2,2)         NODELAY   -7.00       30.0       1.00       6.000E-04  6.000E-06  0.451         -          -      03_02_02                                
 209              (3,2,3)         NODELAY   -7.00       30.0       1.00       6.000E-04  6.000E-06  0.451         -          -      03_02_03                                
 210              (3,2,4)         NODELAY   -7.00       30.0       1.00       6.000E-04  6.000E-06  0.451         -          -      03_02_04                                
 211              (3,2,5)         NODELAY   -7.00       30.0       1.00       6.000E-04  6.000E-06  0.451         -          -      03_02_05                                
 212              (3,2,6)         NODELAY   -7.00       30.0       1.00       6.000E-04  6.000E-06  0.451         -          -      03_02_06                                
 213              (3,2,7)         NODELAY   -7.00       30.0       1.00       6.000E-04  6.000E-06  0.451         -          -      03_02_07                                
 214              (3,2,8)         NODELAY   -7.00       30.0       1.00       6.000E-04  6.000E-06  0.451         -          -      03_02_08                                
 215              (3,2,9)         NODELAY   -7.00       30.0       1.00       6.000E-04  6.000E-06  0.451         -          -      03_02_09                                
 216              (3,2,10)        NODELAY   -7.00       30.0       1.00       6.000E-04  6.000E-06  0.451         -          -      03_02_10                                
 217              (3,3,1)         NODELAY   -7.00       30.0       1.00       6.000E-04  6.000E-06  0.451         -          -      03_03_01                                
 218              (3,3,2)         NODELAY   -7.00       30.0       1.00       6.000E-04  6.000E-06  0.451         -          -      03_03_02                                
 219              (3,3,3)         NODELAY   -7.00       30.0       1.00       6.000E-04  6.000E-06  0.451         -          -      03_03_03                                
 220              (3,3,4)         NODELAY   -7.00       30.0       1.00       6.000E-04  6.000E-06  0.451         -          -      03_03_04                                
 221              (3,3,5)         NODELAY   -7.00       30.0       1.00       6.000E-04  6.000E-06  0.451         -          -      03_03_05                                
 222              (3,3,6)         NODELAY   -7.00       30.0       1.00       6.000E-04  6.000E-06  0.451         -          -      03_03_06                                
 223              (3,3,7)         NODELAY   -7.00       30.0       1.00       6.000E-04  6.000E-06  0.451         -          -      03_03_07                                
 224              (3,3,8)         NODELAY   -7.00       30.0       1.00       6.000E-04  6.000E-06  0.451         -          -      03_03_08                                
 225              (3,3,9)         NODELAY   -7.00       30.0       1.00       6.000E-04  6.000E-06  0.451         -          -      03_03_09                                
 226              (3,3,10)        NODELAY   -7.00       30.0       1.00       6.000E-04  6.000E-06  0.451         -          -      03_03_10                                
 227              (3,4,1)         NODELAY   -7.00       30.0       1.00       6.000E-04  6.000E-06  0.451         -          -      03_04_01                                
 228              (3,4,2)         NODELAY   -7.00       30.0       1.00       6.000E-04  6.000E-06  0.451         -          -      03_04_02                                
 229              (3,4,3)         NODELAY   -7.00       30.0       1.00       6.000E-04  6.000E-06  0.451         -          -      03_04_03                                
 230              (3,4,4)         NODELAY   -7.00       30.0       1.00       6.000E-04  6.000E-06  0.451         -          -      03_04_04                                
 231              (3,4,5)         NODELAY   -7.00       30.0       1.00       6.000E-04  6.000E-06  0.451         -          -      03_04_05                                
 232              (3,4,6)         NODELAY   -7.00       30.0       1.00       6.000E-04  6.000E-06  0.451         -          -      03_04_06                                
 233              (3,4,7)         NODELAY   -7.00       30.0       1.00       6.000E-04  6.000E-06  0.451         -          -      03_04_07                                
 234              (3,4,8)         NODELAY   -7.00       30.0       1.00       6.000E-04  6.000E-06  0.451         -          -      03_04_08                                
 235              (3,4,9)         NODELAY   -7.00       30.0       1.00       6.000E-04  6.000E-06  0.451         -          -      03_04_09                                
 236              (3,4,10)        NODELAY   -7.00       30.0       1.00       6.000E-04  6.000E-06  0.451         -          -      03_04_10                                
 237              (3,5,1)         NODELAY   -7.00       30.0       1.00       6.000E-04  6.000E-06  0.451         -          -      03_05_01                                
 238              (3,5,2)         NODELAY   -7.00       30.0       1.00       6.000E-04  6.000E-06  0.451         -          -      03_05_02                                
 239              (3,5,3)         NODELAY   -7.00       30.0       1.00       6.000E-04  6.000E-06  0.451         -          -      03_05_03                                
 240              (3,5,4)         NODELAY   -7.00       30.0       1.00       6.000E-04  6.000E-06  0.451         -          -      03_05_04                                
 241              (3,5,5)         NODELAY   -7.00       30.0       1.00       6.000E-04  6.000E-06  0.451         -          -      03_05_05                                
 242              (3,5,6)         NODELAY   -7.00       30.0       1.00       6.000E-04  6.000E-06  0.451         -          -      03_05_06                                
 243              (3,5,7)         NODELAY   -7.00       30.0       1.00       6.000E-04  6.000E-06  0.451         -          -      03_05_07                                
 244              (3,5,8)         NODELAY   -7.00       30.0       1.00       6.000E-04  6.000E-06  0.451         -          -      03_05_08                                
 245              (3,5,9)         NODELAY   -7.00       30.0       1.00       6.000E-04  6.000E-06  0.451         -          -      03_05_09                                
 246              (3,5,10)        NODELAY   -7.00       30.0       1.00       6.000E-04  6.000E-06  0.451         -          -      03_05_10                                
 247              (3,6,1)         NODELAY   -7.00       30.0       1.00       6.000E-04  6.000E-06  0.451         -          -      03_06_01                                
 248              (3,6,2)         NODELAY   -7.00       30.0       1.00       6.000E-04  6.000E-06  0.451         -          -      03_06_02                                
 249              (3,6,3)         NODELAY   -7.00       30.0       1.00       6.000E-04  6.000E-06  0.451         -          -      03_06_03                                
 250              (3,6,4)         NODELAY   -7.00       30.0       1.00       6.000E-04  6.000E-06  0.451         -          -      03_06_04                                
 251              (3,6,5)         NODELAY   -7.00       30.0       1.00       6.000E-04  6.000E-06  0.451         -          -      03_06_05                                
 252              (3,6,6)         NODELAY   -7.00       30.0       1.00       6.000E-04  6.000E-06  0.451         -          -      03_06_06                                
 253              (3,6,7)         NODELAY   -7.00       30.0       1.00       6.000E-04  6.000E-06  0.451         -          -      03_06_07                                
 254              (3,6,8)         NODELAY   -7.00       30.0       1.00       6.000E-04  6.000E-06  0.451         -          -      03_06_08                                
 255              (3,6,9)         NODELAY   -7.00       30.0       1.00       6.000E-04  6.000E-06  0.451         -          -      03_06_09                                
 256              (3,6,10)        NODELAY   -7.00       30.0       1.00       6.000E-04  6.000E-06  0.451         -          -      03_06_10                                
 257              (3,7,1)         NODELAY   -7.00       30.0       1.00       6.000E-04  6.000E-06  0.451         -          -      03_07_01                                
 258              (3,7,2)         NODELAY   -7.00       30.0       1.00       6.000E-04  6.000E-06  0.451         -          -      03_07_02                                
 259              (3,7,3)         NODELAY   -7.00       30.0       1.00       6.000E-04  6.000E-06  0.451         -          -      03_07_03                                
 260              (3,7,4)         NODELAY   -7.00       30.0       1.00       6.000E-04  6.000E-06  0.451         -          -      03_07_04                                
 261              (3,7,5)         NODELAY   -7.00       30.0       1.00       6.000E-04  6.000E-06  0.451         -          -      03_07_05                                
 262              (3,7,6)         NODELAY   -7.00       30.0       1.00       6.000E-04  6.000E-06  0.451         -          -      03_07_06                                
 263              (3,7,7)         NODELAY   -7.00       30.0       1.00       6.000E-04  6.000E-06  0.451         -          -      03_07_07                                
 264              (3,7,8)         NODELAY   -7.00       30.0       1.00       6.000E-04  6.000E-06  0.451         -          -      03_07_08                                
 265              (3,7,9)         NODELAY   -7.00       30.0       1.00       6.000E-04  6.000E-06  0.451         -          -      03_07_09                                
 266              (3,7,10)        NODELAY   -7.00       30.0       1.00       6.000E-04  6.000E-06  0.451         -          -      03_07_10                                
 267              (3,8,1)         NODELAY   -7.00       30.0       1.00       6.000E-04  6.000E-06  0.451         -          -      03_08_01                                
 268              (3,8,2)         NODELAY   -7.00       30.0       1.00       6.000E-04  6.000E-06  0.451         -          -      03_08_02                                
 269              (3,8,3)         NODELAY   -7.00       30.0       1.00       6.000E-04  6.000E-06  0.451         -          -      03_08_03                                
 270              (3,8,4)         NODELAY   -7.00       30.0       1.00       6.000E-04  6.000E-06  0.451         -          -      03_08_04                                
 271              (3,8,5)         NODELAY   -7.00       30.0       1.00       6.000E-04  6.000E-06  0.451         -          -      03_08_05                                
 272              (3,8,6)         NODELAY   -7.00       30.0       1.00       6.000E-04  6.000E-06  0.451         -          -      03_08_06                                
 273              (3,8,7)         NODELAY   -7.00       30.0       1.00       6.000E-04  6.000E-06  0.451         -          -      03_08_07                                
 274              (3,8,8)         NODELAY   -7.00       30.0       1.00       6.000E-04  6.000E-06  0.451         -          -      03_08_08                                
 275              (3,8,9)         NODELAY   -7.00       30.0       1.00       6.000E-04  6.000E-06  0.451         -          -      03_08_09                                
 276              (3,8,10)        NODELAY   -7.00       30.0       1.00       6.000E-04  6.000E-06  0.451         -          -      03_08_10                                
 277              (3,9,1)         NODELAY   -7.00       30.0       1.00       6.000E-04  6.000E-06  0.451         -          -      03_09_01                                
 278              (3,9,2)         NODELAY   -7.00       30.0       1.00       6.000E-04  6.000E-06  0.451         -          -      03_09_02                                
 279              (3,9,3)         NODELAY   -7.00       30.0       1.00       6.000E-04  6.000E-06  0.451         -          -      03_09_03                                
 280              (3,9,4)         NODELAY   -7.00       30.0       1.00       6.000E-04  6.000E-06  0.451         -          -      03_09_04                                
 281              (3,9,5)         NODELAY   -7.00       30.0       1.00       6.000E-04  6.000E-06  0.451         -          -      03_09_05                                
 282              (3,9,6)         NODELAY   -7.00       30.0       1.00       6.000E-04  6.000E-06  0.451         -          -      03_09_06                                
 283              (3,9,7)         NODELAY   -7.00       30.0       1.00       6.000E-04  6.000E-06  0.451         -          -      03_09_07                                
 284              (3,9,8)         NODELAY   -7.00       30.0       1.00       6.000E-04  6.000E-06  0.451         -          -      03_09_08                                
 285              (3,9,9)         NODELAY   -7.00       30.0       1.00       6.000E-04  6.000E-06  0.451         -          -      03_09_09                                
 286              (3,9,10)        NODELAY   -7.00       30.0       1.00       6.000E-04  6.000E-06  0.451         -          -      03_09_10                                
 287              (3,10,1)        NODELAY   -7.00       30.0       1.00       6.000E-04  6.000E-06  0.451         -          -      03_10_01                                
 288              (3,10,2)        NODELAY   -7.00       30.0       1.00       6.000E-04  6.000E-06  0.451         -          -      03_10_02                                
 289              (3,10,3)        NODELAY   -7.00       30.0       1.00       6.000E-04  6.000E-06  0.451         -          -      03_10_03                                
 290              (3,10,4)        NODELAY   -7.00       30.0       1.00       6.000E-04  6.000E-06  0.451         -          -      03_10_04                                
 291              (3,10,5)        NODELAY   -7.00       30.0       1.00       6.000E-04  6.000E-06  0.451         -          -      03_10_05                                
 292              (3,10,6)        NODELAY   -7.00       30.0       1.00       6.000E-04  6.000E-06  0.451         -          -      03_10_06                                
 293              (3,10,7)        NODELAY   -7.00       30.0       1.00       6.000E-04  6.000E-06  0.451         -          -      03_10_07                                
 294              (3,10,8)        NODELAY   -7.00       30.0       1.00       6.000E-04  6.000E-06  0.451         -          -      03_10_08                                
 295              (3,10,9)        NODELAY   -7.00       30.0       1.00       6.000E-04  6.000E-06  0.451         -          -      03_10_09                                
 296             (3,10,10)        NODELAY   -7.00       30.0       1.00       6.000E-04  6.000E-06  0.451         -          -      03_10_10                                
 297              (1,1,1)          DELAY    -7.00       5.89       7.63       6.000E-04  6.000E-06  0.451      1.000E-06  22.7      01_01_01                                
 298              (1,1,2)          DELAY    -7.00       5.89       7.63       6.000E-04  6.000E-06  0.451      1.000E-06  22.3      01_01_02                                
 299              (1,1,3)          DELAY    -7.00       5.89       7.63       6.000E-04  6.000E-06  0.451      1.000E-06  21.7      01_01_03                                
 300              (1,1,4)          DELAY    -7.00       5.89       7.63       6.000E-04  6.000E-06  0.451      1.000E-06  21.2      01_01_04                                
 301              (1,1,5)          DELAY    -7.00       5.89       7.63       6.000E-04  6.000E-06  0.451      1.000E-06  21.0      01_01_05                                
 302              (1,1,6)          DELAY    -7.00       5.89       7.63       6.000E-04  6.000E-06  0.451      1.000E-06  21.0      01_01_06                                
 303              (1,1,7)          DELAY    -7.00       5.89       7.63       6.000E-04  6.000E-06  0.451      1.000E-06  21.2      01_01_07                                
 304              (1,1,8)          DELAY    -7.00       5.89       7.63       6.000E-04  6.000E-06  0.451      1.000E-06  21.7      01_01_08                                
 305              (1,1,9)          DELAY    -7.00       5.89       7.63       6.000E-04  6.000E-06  0.451      1.000E-06  22.3      01_01_09                                
 306              (1,1,10)         DELAY    -7.00       5.89       7.63       6.000E-04  6.000E-06  0.451      1.000E-06  22.7      01_01_10                                
 307              (1,2,1)          DELAY    -7.00       5.89       7.63       6.000E-04  6.000E-06  0.451      1.000E-06  21.6      01_02_01                                
 308              (1,2,2)          DELAY    -7.00       5.89       7.63       6.000E-04  6.000E-06  0.451      1.000E-06  21.1      01_02_02                                
 309              (1,2,3)          DELAY    -7.00       5.89       7.63       6.000E-04  6.000E-06  0.451      1.000E-06  20.7      01_02_03                                
 310              (1,2,4)          DELAY    -7.00       5.89       7.63       6.000E-04  6.000E-06  0.451      1.000E-06  20.4      01_02_04                                
 311              (1,2,5)          DELAY    -7.00       5.89       7.63       6.000E-04  6.000E-06  0.451      1.000E-06  20.3      01_02_05                                
 312              (1,2,6)          DELAY    -7.00       5.89       7.63       6.000E-04  6.000E-06  0.451      1.000E-06  20.3      01_02_06                                
[...]
   1     -27.8795        -28.0498        -28.3684        -28.7871        -29.2279        -29.5837        -29.7496        -29.7469        -29.6747        -29.6167    
   2     -27.8805        -28.1413        -28.6554        -29.3925        -30.2664        -31.0457        -31.1290        -30.7292        -30.3215        -30.0872    
   3     -27.5174        -27.9081        -28.7418        -30.1446        -32.3814        -35.9983        -35.1476        -32.4476        -30.9785        -30.3245    
   4     -26.2595        -26.5768        -27.2292        -28.2504        -29.6844        -31.5584        -31.2949        -29.9515        -29.0745        -28.6450    
   5     -24.3754        -24.5516        -24.8916        -25.3640        -25.8996        -26.3551        -26.4468        -26.2641        -26.0483        -25.9167    
   6     -22.3961        -22.4804        -22.6372        -22.8424        -23.0579        -23.2339        -23.3238        -23.3349        -23.3101        -23.2874    
   7     -20.6532        -20.6922        -20.7637        -20.8561        -20.9533        -21.0381        -21.0979        -21.1311        -21.1452        -21.1493    
   8     -19.2956        -19.3142        -19.3485        -19.3932        -19.4414        -19.4865        -19.5233        -19.5495        -19.5655        -19.5730    
   9     -18.3784        -18.3884        -18.4068        -18.4310        -18.4580        -18.4844        -18.5075        -18.5255        -18.5376        -18.5436    
  10     -17.9180        -17.9246        -17.9369        -17.9533        -17.9719        -17.9907        -18.0077        -18.0215        -18.0312        -18.0361    

 HEAD WILL BE SAVED ON UNIT 1023 AT END OF TIME STEP    6, STRESS PERIOD   30


  VOLUME BUDGET FOR ENTIRE MODEL AT END OF TIME STEP    6, STRESS PERIOD  30
  ---------------------------------------------------------------------------------------------------

     CUMULATIVE VOLUME      L**3       RATES FOR THIS TIME STEP      L**3/T          PACKAGE NAME    
     ------------------                 ------------------------                     ----------------

           IN:                                      IN:
           ---                                      ---
              STO-SS =           0.0000                STO-SS =           0.0000     STORAGE                          
      CSUB-CGELASTIC =     2135892.0387        CSUB-CGELASTIC =          64.9030     CSUB                             
        CSUB-ELASTIC =     4634513.5752          CSUB-ELASTIC =           9.6220     CSUB                             
      CSUB-INELASTIC =   232440733.5061        CSUB-INELASTIC =       20060.6068     CSUB                             
      CSUB-WATERCOMP =           0.0000        CSUB-WATERCOMP =           0.0000     CSUB                             
                 WEL =           0.0000                   WEL =           0.0000     WEL_0                            
                RCHA =   256432500.0000                  RCHA =       27000.0000     RCHA_0                           
                 CHD =     3650718.5381                   CHD =         173.7855     CHD_0                            

            TOTAL IN =   499294357.6582              TOTAL IN =       47308.9174

          OUT:                                     OUT:
          ----                                     ----
              STO-SS =           0.0000                STO-SS =           0.0000     STORAGE                          
      CSUB-CGELASTIC =      272965.5610        CSUB-CGELASTIC =           0.0000     CSUB                             
        CSUB-ELASTIC =      967085.3344          CSUB-ELASTIC =           0.0000     CSUB                             
      CSUB-INELASTIC =           0.0000        CSUB-INELASTIC =           0.0000     CSUB                             
      CSUB-WATERCOMP =           0.0000        CSUB-WATERCOMP =           0.0000     CSUB                             
                 WEL =   317767500.0000                   WEL =       30000.0000     WEL_0                            
                RCHA =           0.0000                  RCHA =           0.0000     RCHA_0                           
                 CHD =   180286807.0104                   CHD =       17308.9175     CHD_0                            

           TOTAL OUT =   499294357.9058             TOTAL OUT =       47308.9175

            IN - OUT =          -0.2476              IN - OUT =      -2.4205E-05

 PERCENT DISCREPANCY =          -0.00     PERCENT DISCREPANCY =          -0.00




         TIME SUMMARY AT END OF TIME STEP    6 IN STRESS PERIOD   30
                    SECONDS     MINUTES      HOURS       DAYS        YEARS
                    -----------------------------------------------------------
   TIME STEP LENGTH 9.18555E+06 1.53093E+05  2551.5      106.31     0.29107    
 STRESS PERIOD TIME 3.15576E+07 5.25960E+05  8766.0      365.25      1.0000    
         TOTAL TIME 9.15257E+08 1.52543E+07 2.54238E+05  10593.      29.003    


end timestep


start timestep kper="31" kstp="1" mode="normal"


 OUTPUT CONTROL FOR STRESS PERIOD 31 IS REPEATED USING SETTINGS FROM A PREVIOUS STRESS PERIOD.


 STRESS PERIOD 31 IS TRANSIENT


 REUSING CSUBS FROM LAST STRESS PERIOD

end timestep


start timestep kper="31" kstp="2" mode="normal"


end timestep


start timestep kper="31" kstp="3" mode="normal"


end timestep


start timestep kper="31" kstp="4" mode="normal"


end timestep


start timestep kper="31" kstp="5" mode="normal"


end timestep


start timestep kper="31" kstp="6" mode="normal"

 UBDSV1 SAVING  CSUB-CGELASTIC  ON UNIT   1022 AT TIME STEP      6, STRESS PERIOD     31
 UBDSV06 SAVING    CSUB-ELASTIC  IN MODEL CSUB_SUB03B      PACKAGE CSUB_SUB03B     CONNECTED TO MODEL CSUB_SUB03B      PACKAGE CSUB             ON UNIT   1022 AT TIME STEP      6, STRESS PERIOD     31
 UBDSV06 SAVING  CSUB-INELASTIC  IN MODEL CSUB_SUB03B      PACKAGE CSUB_SUB03B     CONNECTED TO MODEL CSUB_SUB03B      PACKAGE CSUB             ON UNIT   1022 AT TIME STEP      6, STRESS PERIOD     31
 UBDSV1 SAVING  CSUB-WATERCOMP  ON UNIT   1022 AT TIME STEP      6, STRESS PERIOD     31

 WEL PACKAGE (WEL_0) FLOW RATES   PERIOD     31   STEP        6
 -----------------------------------------------
   NUMBER   CELLID                    RATE      
 -----------------------------------------------
     1      (3,3,6)              -14000.000     
     2      (3,3,7)              -8000.0000     
     3      (3,4,6)              -5000.0000     
     4      (3,4,7)              -3000.0000     
 -----------------------------------------------




 CSUB-COMPACTION WILL BE SAVED ON UNIT 1018 AT END OF TIME STEP    6, STRESS PERIOD   31
1
  HEAD IN LAYER   1 AT END OF TIME STEP   6 IN STRESS PERIOD   31
  ---------------------------------------------------------------------------

                1               2               3               4               5               6               7               8               9              10
 ................................................................................................................................................................
   1      18.2455         17.8148         16.9982         16.4717         16.1986         16.1647         16.3729         16.8430         17.6174         18.0252    
   2      17.1176         16.5054         15.9800         15.5972         15.3790         15.3338         15.4642         15.7676         16.2298         16.8053    
   3      15.5814         14.9852         14.5265         14.2003         14.0042         13.9376         14.0013         14.1962         14.5297         15.0296    
   4      13.5640         13.0451         12.6737         12.4130         12.2456         12.1618         12.1529         12.2056         12.2971         12.3855    
   5      10.7449         10.6345         10.4972         10.3712         10.2736         10.2109         10.1823         10.1813         10.1963         10.2114    
   6      8.47323         8.43735         8.38110         8.32045         8.26744         8.22898         8.20694         8.19890         8.19933         8.20185    
   7      6.43775         6.41435         6.37503         6.33148         6.29535         6.27358         6.26785         6.27469         6.28617         6.29429    
   8      4.57672         4.53571         4.46641         4.39324         4.34606         4.33426         4.35879         4.41223         4.46685         4.49997    
   9      2.94990         2.84010         2.64275         2.42028         2.32433         2.31863         2.40328         2.61457         2.80329         2.90842    
  10      1.82322         1.55522        0.979306         0.00000         0.00000         0.00000         0.00000        0.967038         1.53467         1.79847    
1
  HEAD IN LAYER   2 AT END OF TIME STEP   6 IN STRESS PERIOD   31
  ---------------------------------------------------------------------------

                1               2               3               4               5               6               7               8               9              10
 ................................................................................................................................................................
   1     -6.68123        -6.68399        -6.69482        -6.71027        -6.72749        -6.74436        -6.75978        -6.77397        -6.78847        -6.80597    
   2     -6.70908        -6.20283        -6.59952        -7.10749        -7.37796        -7.56238        -7.55988        -7.42751        -7.23334        -6.89434    
   3     -6.76502        -6.73443        -7.20512        -7.56245        -8.33275        -9.63765        -9.32062        -8.29013        -7.65976        -6.98160    
   4     -6.83446        -6.98087        -7.13469        -7.42532        -7.92610        -8.60582        -8.52115        -8.02234        -7.63101        -7.04437    
   5     -6.90934        -7.01162        -7.05590        -7.14406        -7.28186        -7.42160        -7.45513        -7.39876        -7.31046        -7.09054    
   6     -6.98049        -7.02006        -7.04108        -7.07164        -7.11101        -7.14704        -7.16765        -7.17103        -7.16101        -7.12964    
   7     -7.04646        -7.04204        -7.05562        -7.07243        -7.09150        -7.10781        -7.11832        -7.12262        -7.12291        -7.17130    
   8     -7.12344        -7.10850        -7.12807        -7.14903        -7.16741        -7.17843        -7.18086        -7.17531        -7.16785        -7.22011    
   9     -7.20815        -7.25749        -7.31565        -7.37771        -7.41113        -7.42007        -7.40310        -7.35309        -7.30530        -7.27520    
  10     -7.29469        -7.31551        -7.33485        -7.35107        -7.36128        -7.36548        -7.36362        -7.35565        -7.34437        -7.33138    
1
  HEAD IN LAYER   3 AT END OF TIME STEP   6 IN STRESS PERIOD   31
  ---------------------------------------------------------------------------

                1               2               3               4               5               6               7               8               9              10
 ................................................................................................................................................................
   1     -28.3896        -28.5599        -28.8784        -29.2971        -29.7378        -30.0934        -30.2593        -30.2566        -30.1844        -30.1264    
   2     -28.3878        -28.6486        -29.1627        -29.8996        -30.7730        -31.5522        -31.6354        -31.2357        -30.8282        -30.5939    
   3     -28.0190        -28.4097        -29.2432        -30.6458        -32.8826        -36.4995        -35.6488        -32.9486        -31.4794        -30.8253    
   4     -26.7529        -27.0702        -27.7223        -28.7434        -30.1776        -32.0516        -31.7881        -30.4446        -29.5675        -29.1378    
   5     -24.8593        -25.0353        -25.3752        -25.8475        -26.3831        -26.8387        -26.9304        -26.7477        -26.5319        -26.4002    
   6     -22.8700        -22.9541        -23.1108        -23.3159        -23.5315        -23.7075        -23.7974        -23.8085        -23.7837        -23.7610    
   7     -21.1179        -21.1567        -21.2282        -21.3205        -21.4177        -21.5025        -21.5623        -21.5956        -21.6097        -21.6138    
   8     -19.7528        -19.7713        -19.8055        -19.8502        -19.8984        -19.9435        -19.9803        -20.0065        -20.0226        -20.0301    
   9     -18.8303        -18.8402        -18.8586        -18.8829        -18.9099        -18.9362        -18.9593        -18.9773        -18.9894        -18.9954    
  10     -18.3672        -18.3738        -18.3861        -18.4025        -18.4211        -18.4398        -18.4568        -18.4706        -18.4803        -18.4852    

 HEAD WILL BE SAVED ON UNIT 1023 AT END OF TIME STEP    6, STRESS PERIOD   31


  VOLUME BUDGET FOR ENTIRE MODEL AT END OF TIME STEP    6, STRESS PERIOD  31
  ---------------------------------------------------------------------------------------------------

     CUMULATIVE VOLUME      L**3       RATES FOR THIS TIME STEP      L**3/T          PACKAGE NAME    
     ------------------                 ------------------------                     ----------------

           IN:                                      IN:
           ---                                      ---
              STO-SS =           0.0000                STO-SS =           0.0000     STORAGE                          
      CSUB-CGELASTIC =     2159390.1107        CSUB-CGELASTIC =          64.0337     CSUB                             
        CSUB-ELASTIC =     4637448.0776          CSUB-ELASTIC =           7.6402     CSUB                             
      CSUB-INELASTIC =   239755597.1922        CSUB-INELASTIC =       20003.5645     CSUB                             
      CSUB-WATERCOMP =           0.0000        CSUB-WATERCOMP =           0.0000     CSUB                             
                 WEL =           0.0000                   WEL =           0.0000     WEL_0                            
                RCHA =   266294250.0000                  RCHA =       27000.0000     RCHA_0                           
                 CHD =     3714812.3370                   CHD =         176.6487     CHD_0                            

            TOTAL IN =   516561497.7175              TOTAL IN =       47251.8872

          OUT:                                     OUT:
          ----                                     ----
              STO-SS =           0.0000                STO-SS =           0.0000     STORAGE                          
      CSUB-CGELASTIC =      272965.5610        CSUB-CGELASTIC =           0.0000     CSUB                             
        CSUB-ELASTIC =      967085.3344          CSUB-ELASTIC =           0.0000     CSUB                             
      CSUB-INELASTIC =           0.0000        CSUB-INELASTIC =           0.0000     CSUB                             
      CSUB-WATERCOMP =           0.0000        CSUB-WATERCOMP =           0.0000     CSUB                             
                 WEL =   328725000.0000                   WEL =       30000.0000     WEL_0                            
                RCHA =           0.0000                  RCHA =           0.0000     RCHA_0                           
                 CHD =   186596447.0785                   CHD =       17251.8872     CHD_0                            

           TOTAL OUT =   516561497.9740             TOTAL OUT =       47251.8872

            IN - OUT =          -0.2565              IN - OUT =      -2.5066E-05

 PERCENT DISCREPANCY =          -0.00     PERCENT DISCREPANCY =          -0.00




         TIME SUMMARY AT END OF TIME STEP    6 IN STRESS PERIOD   31
                    SECONDS     MINUTES      HOURS       DAYS        YEARS
                    -----------------------------------------------------------
   TIME STEP LENGTH 9.18555E+06 1.53093E+05  2551.5      106.31     0.29107    
 STRESS PERIOD TIME 3.15576E+07 5.25960E+05  8766.0      365.25      1.0000    
         TOTAL TIME 9.46814E+08 1.57802E+07 2.63004E+05  10958.      30.003    


end timestep


 LARGEST 20 OF 492 INTERBED STRAIN VALUES SHOWN

 CSUB PACKAGE INTERBED STRAIN SUMMARY
 ----------------------------------------------------------------------------------------------------------------------
  INTERBED   INTERBED                         INITIAL       FINAL        TOTAL                    PERCENT              
   NUMBER      TYPE    CELLID                THICKNESS    THICKNESS    COMPACTION  FINAL STRAIN  COMPACTION     FLAG   
 ----------------------------------------------------------------------------------------------------------------------
    418       delay    (3,3,6)               90.007       90.007       1.5018       1.66851E-02  1.6685        *>=1%   
    419       delay    (3,3,7)               90.007       90.007       1.4559       1.61749E-02  1.6175        *>=1%   
    420       delay    (3,3,8)               90.007       90.007       1.3102       1.45562E-02  1.4556        *>=1%   
    417       delay    (3,3,5)               90.007       90.007       1.3067       1.45176E-02  1.4518        *>=1%   
    428       delay    (3,4,6)               90.007       90.007       1.2639       1.40426E-02  1.4043        *>=1%   
    429       delay    (3,4,7)               90.007       90.007       1.2497       1.38844E-02  1.3884        *>=1%   
    409       delay    (3,2,7)               90.007       90.007       1.2379       1.37528E-02  1.3753        *>=1%   
    408       delay    (3,2,6)               90.007       90.007       1.2334       1.37033E-02  1.3703        *>=1%   
    421       delay    (3,3,9)               90.007       90.007       1.2309       1.36754E-02  1.3675        *>=1%   
    410       delay    (3,2,8)               90.007       90.007       1.2163       1.35128E-02  1.3513        *>=1%   
    422       delay    (3,3,10)              90.007       90.007       1.1956       1.32832E-02  1.3283        *>=1%   
    411       delay    (3,2,9)               90.007       90.007       1.1942       1.32683E-02  1.3268        *>=1%   
    407       delay    (3,2,5)               90.007       90.007       1.1914       1.32366E-02  1.3237        *>=1%   
    416       delay    (3,3,4)               90.007       90.007       1.1861       1.31773E-02  1.3177        *>=1%   
    412       delay    (3,2,10)              90.007       90.007       1.1816       1.31278E-02  1.3128        *>=1%   
    430       delay    (3,4,8)               90.007       90.007       1.1772       1.30790E-02  1.3079        *>=1%   
    427       delay    (3,4,5)               90.007       90.007       1.1629       1.29197E-02  1.2920        *>=1%   
    399       delay    (3,1,7)               90.007       90.007       1.1629       1.29196E-02  1.2920        *>=1%   
    400       delay    (3,1,8)               90.007       90.007       1.1627       1.29176E-02  1.2918        *>=1%   
    401       delay    (3,1,9)               90.007       90.007       1.1588       1.28742E-02  1.2874        *>=1%   
 ----------------------------------------------------------------------------------------------------------------------



 PERCENT COMPACTION IS GREATER THAN OR EQUAL TO 1 PERCENT IN 156 OF 492 INTERBED(S).
 USE THE STRAIN_CSV_INTERBED OPTION TO OUTPUT A CSV FILE WITH PERCENT COMPACTION 
 VALUES FOR ALL INTERBEDS.

 COARSE-GRAINED STORAGE PERCENT COMPACTION WAS LESS THAN 1 PERCENT IN ALL CELLS
