                             MODFLOW 6 PROFESSIONAL
                U.S. GEOLOGICAL SURVEY MODULAR HYDROLOGIC MODEL
                  VERSION 6.5.0.dev0 (preliminary) 07/13/2023
                               ***DEVELOP MODE***

        MODFLOW 6 compiled Oct 30 2023 08:23:02 with GCC version 11.3.0

This software is preliminary or provisional and is subject to 
revision. It is being provided to meet the need for timely best 
science. The software has not received final approval by the U.S. 
Geological Survey (USGS). No warranty, expressed or implied, is made 
by the USGS or the U.S. Government as to the functionality of the 
software and related material nor shall the fact of release 
constitute any such warranty. The software is provided on the 
condition that neither the USGS nor the U.S. Government shall be held 
liable for any damages resulting from the authorized or unauthorized 
use of the software.


As a work of the United States Government, this USGS product is 
in the public domain within the United States. You can copy, 
modify, distribute, and perform the work, even for commercial 
purposes, all without asking permission. Additionally, USGS 
waives copyright and related rights in the work worldwide 
through CC0 1.0 Universal Public Domain Dedication 
(https://creativecommons.org/publicdomain/zero/1.0/).

The following GNU Lesser General Public License (LGPL) libraries
are used in this USGS product:

    SPARSKIT version 2.0
      ilut, luson, and qsplit 
      (https://www-users.cse.umn.edu/~saad/software/SPARSKIT/)

    RCM - Reverse Cuthill McKee Ordering
      (https://people.math.sc.edu/Burkardt/f_src/rcm/rcm.html)

    BLAS - Basic Linear Algebra Subprograms Level 1
      (https://people.math.sc.edu/Burkardt/f_src/blas1_d/blas1_d.html)

    SPARSEKIT - Sparse Matrix Utility Package
      amux, dperm, dvperm, rperm, and cperm
      (https://people.sc.fsu.edu/~jburkardt/f77_src/sparsekit/sparsekit.html)

The following BSD-3 License libraries are used in this USGS product:

    Modern Fortran DAG Library
      Copyright (c) 2018, Jacob Williams
      All rights reserved.
      (https://github.com/jacobwilliams/daglib)

The following 2-clause BSD License library is used in this
USGS product:

    PETSc, the Portable, Extensible Toolkit for Scientific
    Computation Library
      Copyright (c) 1991-2021, UChicago Argonne, LLC
      and the PETSc Development Team All rights reserved.
      (https://petsc.org/release/)

MODFLOW 6 compiler options: -cpp -I src/libmf6core.a.p -I src -I ../src -I
src/libmf6_external.a.p -I
/home/mreno/.clone/external/petsc/arch-linux-c-debug/include -I
/home/mreno/.clone/external/petsc/include -I
/home/mreno/.clone/external/petsc/arch-linux-c-debug/lib -I
/home/mreno/miniconda3/envs/modflow6/include -I -fdiagnostics-color=always
-imultiarch x86_64-linux-gnu -D _FILE_OFFSET_BITS=64 -D __linux__ -D
__WITH_PETSC__ -D __WITH_MPI__ -D __WITH_NETCDF__ -mtune=generic
-march=x86-64 -g -O2 -Wall -Wpedantic -Wcharacter-truncation
-Wno-unused-dummy-argument -Wno-intrinsic-shadow -Wno-maybe-uninitialized
-Wno-uninitialized -std=f2008 -fall-intrinsics -fbacktrace -fcheck=all
-ffpe-trap=overflow,zero,invalid -ffpe-summary=overflow
-ffpe-trap=overflow,zero,invalid -fPIC -J src/libmf6core.a.p
-fpre-include=/usr/include/finclude/math-vector-fortran.h

System command used to initiate simulation:
/home/mreno/.clone/usgs/w/netcdf/2/modflow6/bin/mf6

MODFLOW was compiled using uniform precision.

Real Variables
  KIND: 8
  TINY (smallest non-zero value):    2.225074-308
  HUGE (largest value):    1.797693+308
  PRECISION: 15
  SIZE IN BITS: 64

Integer Variables
  KIND: 4
  HUGE (largest value): 2147483647
  SIZE IN BITS: 32

Long Integer Variables
  KIND: 8
  HUGE (largest value): 9223372036854775807
  SIZE IN BITS: 64

Logical Variables
  KIND: 4
  SIZE IN BITS: 32


 OPENED mfsim.nam
 FILE TYPE:NAM6      UNIT 1001   STATUS:OLD                 
 FORMAT:FORMATTED              ACCESS:SEQUENTIAL          
 ACTION:READ                

 # File generated by Flopy version 3.5.0.dev0 on 10/30/2023 at 09:02:46.

 OPENED csub_sub03b.nam
 FILE TYPE:GWF6      UNIT 1002   STATUS:OLD                 
 FORMAT:FORMATTED              ACCESS:SEQUENTIAL          
 ACTION:READ                

 # File generated by Flopy version 3.5.0.dev0 on 10/30/2023 at 09:02:46.

 OPENED csub_sub03b.dis
 FILE TYPE:DIS6      UNIT 1003   STATUS:OLD                 
 FORMAT:FORMATTED              ACCESS:SEQUENTIAL          
 ACTION:READ                

 # File generated by Flopy version 3.5.0.dev0 on 10/30/2023 at 09:02:46.

 OPENED csub_sub03b.npf
 FILE TYPE:NPF6      UNIT 1004   STATUS:OLD                 
 FORMAT:FORMATTED              ACCESS:SEQUENTIAL          
 ACTION:READ                

 # File generated by Flopy version 3.5.0.dev0 on 10/30/2023 at 09:02:46.

 OPENED csub_sub03b.sto
 FILE TYPE:STO6      UNIT 1005   STATUS:OLD                 
 FORMAT:FORMATTED              ACCESS:SEQUENTIAL          
 ACTION:READ                


 OPENED csub_sub03b.ic
 FILE TYPE:IC6       UNIT 1006   STATUS:OLD                 
 FORMAT:FORMATTED              ACCESS:SEQUENTIAL          
 ACTION:READ                


 OPENED csub_sub03b.oc
 FILE TYPE:OC6       UNIT 1007   STATUS:OLD                 
 FORMAT:FORMATTED              ACCESS:SEQUENTIAL          
 ACTION:READ                


 OPENED csub_sub03b.wel
 FILE TYPE:WEL6      UNIT 1008   STATUS:OLD                 
 FORMAT:FORMATTED              ACCESS:SEQUENTIAL          
 ACTION:READ                

 # File generated by Flopy version 3.5.0.dev0 on 10/30/2023 at 09:02:46.

 OPENED csub_sub03b.rcha
 FILE TYPE:RCH6      UNIT 1010   STATUS:OLD                 
 FORMAT:FORMATTED              ACCESS:SEQUENTIAL          
 ACTION:READ                

 # File generated by Flopy version 3.5.0.dev0 on 10/30/2023 at 09:02:46.

 OPENED csub_sub03b.chd
 FILE TYPE:CHD6      UNIT 1011   STATUS:OLD                 
 FORMAT:FORMATTED              ACCESS:SEQUENTIAL          
 ACTION:READ                

 # File generated by Flopy version 3.5.0.dev0 on 10/30/2023 at 09:02:46.

 OPENED csub_sub03b.csub
 FILE TYPE:CSUB6     UNIT 1012   STATUS:OLD                 
 FORMAT:FORMATTED              ACCESS:SEQUENTIAL          
 ACTION:READ                


 READING SIMULATION OPTIONS
    MAXIMUM NUMBER OF ERRORS THAT WILL BE STORED IS 1000
 END OF SIMULATION OPTIONS

 READING SIMULATION TIMING

 OPENED csub_sub03b.tdis
 FILE TYPE:TDIS   UNIT 1013   STATUS:OLD                 
 FORMAT:FORMATTED              ACCESS:SEQUENTIAL          
 ACTION:READ                


 TDIS -- TEMPORAL DISCRETIZATION PACKAGE,
 VERSION 1 : 11/13/2014 - INPUT READ FROM UNIT 1013
 # File generated by Flopy version 3.5.0.dev0 on 10/30/2023 at 09:02:46.
 PROCESSING TDIS OPTIONS
    SIMULATION TIME UNIT IS DAYS
 END OF TDIS OPTIONS
 PROCESSING TDIS DIMENSIONS
   31 STRESS PERIOD(S) IN SIMULATION
 END OF TDIS DIMENSIONS
 PROCESSING TDIS PERIODDATA


 STRESS PERIOD     LENGTH       TIME STEPS     MULTIPLIER FOR DELT
 ----------------------------------------------------------------------------
        1         1.000000          1                    1.000
        2         365.2500          6                    1.300
        3         365.2500          6                    1.300
        4         365.2500          6                    1.300
        5         365.2500          6                    1.300
        6         365.2500          6                    1.300
        7         365.2500          6                    1.300
        8         365.2500          6                    1.300
        9         365.2500          6                    1.300
       10         365.2500          6                    1.300
       11         365.2500          6                    1.300
       12         365.2500          6                    1.300
       13         365.2500          6                    1.300
       14         365.2500          6                    1.300
       15         365.2500          6                    1.300
       16         365.2500          6                    1.300
       17         365.2500          6                    1.300
       18         365.2500          6                    1.300
       19         365.2500          6                    1.300
       20         365.2500          6                    1.300
       21         365.2500          6                    1.300
       22         365.2500          6                    1.300
       23         365.2500          6                    1.300
       24         365.2500          6                    1.300
       25         365.2500          6                    1.300
       26         365.2500          6                    1.300
       27         365.2500          6                    1.300
       28         365.2500          6                    1.300
       29         365.2500          6                    1.300
       30         365.2500          6                    1.300
       31         365.2500          6                    1.300
 END OF TDIS PERIODDATA
 END OF SIMULATION TIMING

 READING SIMULATION MODELS
    GWF6 model 1 will be created
 END OF SIMULATION MODELS

 READING SIMULATION EXCHANGES
 END OF SIMULATION EXCHANGES

 READING SOLUTIONGROUP

 Creating solution: SLN_1           

 OPENED csub_sub03b.ims
 FILE TYPE:IMS   UNIT 1015   STATUS:OLD                 
 FORMAT:FORMATTED              ACCESS:SEQUENTIAL          
 ACTION:READ                

 END OF SOLUTIONGROUP

PROCESSING MODEL CONNECTIONS

 IMS -- ITERATIVE MODEL SOLUTION PACKAGE, VERSION 6, 4/28/2017
         INPUT READ FROM UNIT 1015
 # File generated by Flopy version 3.5.0.dev0 on 10/30/2023 at 09:02:46.

 PROCESSING IMS OPTIONS
 END OF IMS OPTIONS

 PROCESSING IMS NONLINEAR
 END OF IMS NONLINEAR DATA
 ***UNDER-RELAXATION WILL NOT BE USED***


 PROCESSING LINEAR DATA
 END OF LINEAR DATA
 ***IMS LINEAR SOLVER WILL BE USED***

 IMSLINEAR -- UNSTRUCTURED LINEAR SOLUTION PACKAGE, VERSION 8, 04/28/2017
 A symmetric matrix will be solved

 OUTER ITERATION CONVERGENCE CRITERION    (DVCLOSE) =    0.100000E-08
 MAXIMUM NUMBER OF OUTER ITERATIONS        (MXITER) = 500
 SOLVER PRINTOUT INDEX                     (IPRIMS) = 1
 NONLINEAR ITERATION METHOD            (NONLINMETH) = 0
 LINEAR SOLUTION METHOD                   (LINMETH) = 1

       SOLUTION BY THE        CONJUGATE-GRADIENT       METHOD
 ------------------------------------------------------------------
 MAXIMUM OF 500 CALLS OF SOLUTION ROUTINE
 MAXIMUM OF 300 INTERNAL ITERATIONS PER CALL TO SOLUTION ROUTINE
 LINEAR ACCELERATION METHOD            = CG        
 MATRIX PRECONDITIONING TYPE           = MOD. INCOMPLETE LU  
 MATRIX SCALING APPROACH               = NO SCALING          
 MATRIX REORDERING APPROACH            = ORIGINAL ORDERING        
 NUMBER OF ORTHOGONALIZATIONS          = 0
 HEAD CHANGE CRITERION FOR CLOSURE     =    0.10000E-08
 RESIDUAL CHANGE CRITERION FOR CLOSURE =    0.10000E-05
 RESIDUAL CONVERGENCE OPTION           = 0
 RESIDUAL CONVERGENCE NORM             = INFINITY NORM   
 RELAXATION FACTOR                     =    0.10000E+01




    Solving:  Stress period:     1    Time step:     1

1
                            STRESS PERIOD NO. 1, LENGTH =   1.000000    
                            -----------------------------------------------
                            NUMBER OF TIME STEPS = 1
                            MULTIPLIER FOR DELT =     1.000
                            INITIAL TIME STEP SIZE =   1.000000    

 SLN_1 OUTER ITERATION SUMMARY
 ----------------------------------------------------------------------------------------------------------
                                OUTER      INNER                    STEP   MAXIMUM CHANGE MODEL-(CELLID) OR
 OUTER ITERATION STEP       ITERATION  ITERATION  MAXIMUM CHANGE SUCCESS             MODEL-PACKAGE-(NUMBER)
 ----------------------------------------------------------------------------------------------------------
 Model                              1         37       23.347236                              1_GWF-(1,1,1)
 Model                              2          1  1.85327309E-10       *                      1_GWF-(2,3,8)
 ----------------------------------------------------------------------------------------------------------


 2 CALLS TO NUMERICAL SOLUTION IN TIME STEP 1 STRESS PERIOD 1
 38 TOTAL ITERATIONS

    Solving:  Stress period:     2    Time step:     1

1
                            STRESS PERIOD NO. 2, LENGTH =   365.2500    
                            -----------------------------------------------
                            NUMBER OF TIME STEPS = 6
                            MULTIPLIER FOR DELT =     1.300
                            INITIAL TIME STEP SIZE =   28.63352    

 SLN_1 OUTER ITERATION SUMMARY
 ----------------------------------------------------------------------------------------------------------
                                OUTER      INNER                    STEP   MAXIMUM CHANGE MODEL-(CELLID) OR
 OUTER ITERATION STEP       ITERATION  ITERATION  MAXIMUM CHANGE SUCCESS             MODEL-PACKAGE-(NUMBER)
 ----------------------------------------------------------------------------------------------------------
 Model                              1         15      -4.1601672                              1_GWF-(3,3,6)
 Model                              2         14      -1.8492301                              1_GWF-(3,3,6)
 Model                              3         13      -1.0629703                              1_GWF-(3,3,6)
 Model                              4         14     -0.73053352                              1_GWF-(3,3,7)
 Model                              5         14     -0.56465512                              1_GWF-(3,3,7)
 Model                              6         14     -0.46481719                              1_GWF-(3,3,7)
 Model                              7         14     -0.40329579                              1_GWF-(3,3,8)
 Model                              8         14     -0.36064178                             1_GWF-(3,3,10)
 Model                              9         14     -0.32828332                             1_GWF-(3,2,10)
 Model                             10         14     -0.30281815                             1_GWF-(3,2,10)
 Model                             11         13     -0.28072217                             1_GWF-(3,1,10)
 Model                             12         13     -0.26127283                             1_GWF-(3,1,10)
 Model                             13         13     -0.24278525                             1_GWF-(3,1,10)
 Model                             14         13     -0.22544200                             1_GWF-(3,1,10)
 Model                             15         13     -0.20929945                             1_GWF-(3,1,10)
 Model                             16         13     -0.19434326                             1_GWF-(3,1,10)
 Model                             17         13     -0.18052150                             1_GWF-(3,1,10)
 Model                             18         13     -0.16776413                             1_GWF-(3,1,10)
 Model                             19         13     -0.15599431                             1_GWF-(3,1,10)
 Model                             20         13     -0.14513471                             1_GWF-(3,1,10)
 Model                             21         13     -0.13511091                             1_GWF-(3,1,10)
 Model                             22         13     -0.12585310                             1_GWF-(3,1,10)
 Model                             23         13     -0.11729676                             1_GWF-(3,1,10)
 Model                             24         13     -0.10938276                             1_GWF-(3,1,10)
 Model                             25         13     -0.10205722                             1_GWF-(3,1,10)
 Model                             26         13 -9.52711650E-02                             1_GWF-(3,1,10)
 Model                             27         13 -8.89801239E-02                             1_GWF-(3,1,10)
 Model                             28         13 -8.31437306E-02                             1_GWF-(3,1,10)
 Model                             29         13 -7.77253271E-02                             1_GWF-(3,1,10)
 Model                             30         13 -7.26915945E-02                             1_GWF-(3,1,10)
 Model                             31         13 -6.80122156E-02                             1_GWF-(3,1,10)
 Model                             32         13 -6.36595712E-02                             1_GWF-(3,1,10)
 Model                             33         13 -5.96084676E-02                             1_GWF-(3,1,10)
 Model                             34         13 -5.58358941E-02                             1_GWF-(3,1,10)
 Model                             35         13 -5.23208073E-02                             1_GWF-(3,1,10)
 Model                             36         13 -4.90439394E-02                             1_GWF-(3,1,10)
 Model                             37         13 -4.59876284E-02                             1_GWF-(3,1,10)
 Model                             38         13 -4.31356656E-02                             1_GWF-(3,1,10)
 Model                             39         13 -4.04731611E-02                             1_GWF-(3,1,10)
 Model                             40         13 -3.79864229E-02                             1_GWF-(3,1,10)
 Model                             41         13 -3.56628487E-02                             1_GWF-(3,1,10)
 Model                             42         13 -3.34908293E-02                             1_GWF-(3,1,10)
 Model                             43         13 -3.14596615E-02                             1_GWF-(3,1,10)
 Model                             44         13 -2.95594693E-02                             1_GWF-(3,1,10)
 Model                             45         12 -2.77811338E-02                             1_GWF-(3,1,10)
 Model                             46         12 -2.61162288E-02                             1_GWF-(3,1,10)
 Model                             47         12 -2.45569630E-02                             1_GWF-(3,1,10)
 Model                             48         11 -2.30961277E-02                             1_GWF-(3,1,10)
 Model                             49         11 -2.17270489E-02                             1_GWF-(3,1,10)
 Model                             50         11 -2.04435438E-02                             1_GWF-(3,1,10)
 Model                             51         11 -1.92398819E-02                             1_GWF-(3,1,10)
 Model                             52         11 -1.81107482E-02                             1_GWF-(3,1,10)
 Model                             53         11 -1.70512110E-02                             1_GWF-(3,1,10)
 Model                             54         11 -1.60567013E-02                              1_GWF-(3,1,9)
 Model                             55         11 -1.51229610E-02                              1_GWF-(3,1,9)
 Model                             56         11 -1.42460277E-02                              1_GWF-(3,1,9)
 Model                             57         11 -1.34222318E-02                              1_GWF-(3,1,8)
 Model                             58         11 -1.26481601E-02                              1_GWF-(3,1,8)
 Model                             59         11 -1.19206165E-02                              1_GWF-(3,1,8)
 Model                             60         11 -1.12366390E-02                              1_GWF-(3,1,8)
 Model                             61         11 -1.05934720E-02                              1_GWF-(3,1,7)
 Model                             62         11 -9.98854477E-03                              1_GWF-(3,1,7)
 Model                             63         11 -9.41945191E-03                              1_GWF-(3,1,7)
 Model                             64         11 -8.88395687E-03                              1_GWF-(3,1,7)
 Model                             65         11 -8.37997238E-03                              1_GWF-(3,1,7)
 Model                             66         11 -7.90554971E-03                              1_GWF-(3,1,7)
 Model                             67         11 -7.45887059E-03                              1_GWF-(3,1,6)
 Model                             68         11 -7.03823317E-03                              1_GWF-(3,1,6)
 Model                             69         11 -6.64204631E-03                              1_GWF-(3,1,6)
 Model                             70         11 -6.26882371E-03                              1_GWF-(3,1,6)
 Model                             71         11 -5.91717508E-03                              1_GWF-(3,1,6)
 Model                             72         11 -5.58579942E-03                              1_GWF-(3,1,6)
 Model                             73         11 -5.27347885E-03                              1_GWF-(3,1,6)
 Model                             74         11 -4.97907298E-03                              1_GWF-(3,1,6)
 Model                             75         11 -4.70151355E-03                              1_GWF-(3,1,6)
 Model                             76         11 -4.43979958E-03                              1_GWF-(3,1,6)
 Model                             77         11 -4.19299279E-03                              1_GWF-(3,1,6)
 Model                             78         11 -3.96021347E-03                              1_GWF-(3,1,6)
 Model                             79         11 -3.74063649E-03                              1_GWF-(3,1,6)
 Model                             80         11 -3.53348775E-03                              1_GWF-(3,1,6)
 Model                             81         11 -3.33804077E-03                              1_GWF-(3,1,6)
 Model                             82         11 -3.15361358E-03                              1_GWF-(3,1,6)
 Model                             83         11 -2.97956584E-03                              1_GWF-(3,1,6)
 Model                             84         11 -2.81529609E-03                              1_GWF-(3,1,6)
 Model                             85         11 -2.66023930E-03                              1_GWF-(3,1,6)
 Model                             86         11 -2.51386447E-03                              1_GWF-(3,1,6)
 Model                             87         11 -2.37567250E-03                              1_GWF-(3,1,6)
 Model                             88         11 -2.24519416E-03                              1_GWF-(3,1,6)
 Model                             89         11 -2.12198818E-03                              1_GWF-(3,1,6)
 Model                             90         11 -2.00563948E-03                              1_GWF-(3,1,6)
 Model                             91         11 -1.89575758E-03                              1_GWF-(3,1,6)
 Model                             92         11 -1.79197502E-03                              1_GWF-(3,1,6)
 Model                             93         11 -1.69394595E-03                              1_GWF-(3,1,6)
 Model                             94         11 -1.60134479E-03                              1_GWF-(3,1,6)
 Model                             95         11 -1.51386499E-03                              1_GWF-(3,1,6)
 Model                             96         11 -1.43121784E-03                              1_GWF-(3,1,6)
 Model                             97         11 -1.35313144E-03                              1_GWF-(3,1,6)
 Model                             98         10 -1.27934960E-03                              1_GWF-(3,1,6)
 Model                             99         10 -1.20963095E-03                              1_GWF-(3,1,6)
 Model                            100         10 -1.14374803E-03                              1_GWF-(3,1,6)
 Model                            101         10 -1.08148645E-03                              1_GWF-(3,1,6)
 Model                            102         10 -1.02264410E-03                              1_GWF-(3,1,6)
 Model                            103         10 -9.67030439E-04                              1_GWF-(3,1,6)
 Model                            104         10 -9.14465797E-04                              1_GWF-(3,1,6)
 Model                            105         10 -8.64780730E-04                              1_GWF-(3,1,6)
 Model                            106         10 -8.17815423E-04                              1_GWF-(3,1,6)
 Model                            107         10 -7.73419119E-04                              1_GWF-(3,1,6)
 Model                            108         10 -7.31449590E-04                              1_GWF-(3,1,6)
 Model                            109         10 -6.91772640E-04                              1_GWF-(3,1,6)
 Model                            110         10 -6.54261636E-04                              1_GWF-(3,1,6)
 Model                            111         10 -6.18797068E-04                              1_GWF-(3,1,6)
 Model                            112         10 -5.85266139E-04                              1_GWF-(3,1,6)
 Model                            113         10 -5.53562373E-04                              1_GWF-(3,1,6)
 Model                            114         10 -5.23585256E-04                              1_GWF-(3,1,6)
 Model                            115         10 -4.95239891E-04                              1_GWF-(3,1,6)
 Model                            116         10 -4.68436674E-04                              1_GWF-(3,1,6)
 Model                            117         10 -4.43090998E-04                              1_GWF-(3,1,6)
 Model                            118         10 -4.19122958E-04                              1_GWF-(3,1,6)
 Model                            119         10 -3.96457093E-04                              1_GWF-(3,1,6)
 Model                            120         10 -3.75022127E-04                              1_GWF-(3,1,6)
 Model                            121         10 -3.54750737E-04                              1_GWF-(3,1,6)
 Model                            122          9 -3.35579323E-04                              1_GWF-(3,1,6)
 Model                            123          9 -3.17447804E-04                              1_GWF-(3,1,5)
 Model                            124          9 -3.00299418E-04                              1_GWF-(3,1,5)
 Model                            125          9 -2.84080532E-04                              1_GWF-(3,1,6)
 Model                            126          9 -2.68740470E-04                              1_GWF-(3,1,6)
 Model                            127          9 -2.54231347E-04                              1_GWF-(3,1,6)
 Model                            128          9 -2.40507912E-04                              1_GWF-(3,1,6)
 Model                            129          9 -2.27527398E-04                              1_GWF-(3,1,6)
 Model                            130          9 -2.15249389E-04                              1_GWF-(3,1,6)
 Model                            131          9 -2.03635685E-04                              1_GWF-(3,1,6)
 Model                            132          9 -1.92650181E-04                              1_GWF-(3,1,6)
 Model                            133          9 -1.82258749E-04                              1_GWF-(3,1,6)
 Model                            134          9 -1.72429128E-04                              1_GWF-(3,1,6)
 Model                            135          9 -1.63130822E-04                              1_GWF-(3,1,6)
 Model                            136          9 -1.54335003E-04                              1_GWF-(3,1,6)
 Model                            137          9 -1.46014414E-04                              1_GWF-(3,1,6)
 Model                            138          9 -1.38143290E-04                              1_GWF-(3,1,6)
 Model                            139          9 -1.30697269E-04                              1_GWF-(3,1,6)
 Model                            140          9 -1.23653317E-04                              1_GWF-(3,1,6)
 Model                            141          9 -1.16989656E-04                              1_GWF-(3,1,5)
 Model                            142          9 -1.10685693E-04                              1_GWF-(3,1,5)
 Model                            143          9 -1.04721957E-04                              1_GWF-(3,1,5)
 Model                            144          9 -9.90800346E-05                              1_GWF-(3,1,5)
 Model                            145          9 -9.37425152E-05                              1_GWF-(3,1,5)
 Model                            146          9 -8.86929336E-05                              1_GWF-(3,1,5)
 Model                            147          9 -8.39157191E-05                              1_GWF-(3,1,5)
 Model                            148          9 -7.93961467E-05                              1_GWF-(3,1,5)
 Model                            149          9 -7.51202905E-05                              1_GWF-(3,1,5)
 Model                            150          9 -7.10749802E-05                              1_GWF-(3,1,5)
 Model                            151          9 -6.72477600E-05                              1_GWF-(3,1,5)
 Model                            152          8 -6.36268490E-05                              1_GWF-(3,1,5)
 Model                            153          8 -6.02011058E-05                              1_GWF-(3,1,5)
 Model                            154          8 -5.69599913E-05                              1_GWF-(3,1,5)
 Model                            155          8 -5.38935381E-05                              1_GWF-(3,1,5)
 Model                            156          8 -5.09923184E-05                              1_GWF-(3,1,5)
 Model                            157          8 -4.82474145E-05                              1_GWF-(3,1,5)
 Model                            158          8 -4.56503917E-05                              1_GWF-(3,1,5)
 Model                            159          8 -4.31932712E-05                              1_GWF-(3,1,5)
 Model                            160          8 -4.08685060E-05                              1_GWF-(3,1,5)
 Model                            161          8 -3.86689572E-05                              1_GWF-(3,1,5)
 Model                            162          8 -3.65878718E-05                              1_GWF-(3,1,5)
 Model                            163          8 -3.46188617E-05                              1_GWF-(3,1,5)
 Model                            164          8 -3.27558843E-05                              1_GWF-(3,1,5)
 Model                            165          8 -3.09932230E-05                              1_GWF-(3,1,5)
 Model                            166          8 -2.93254705E-05                              1_GWF-(3,1,5)
 Model                            167          8 -2.77475111E-05                              1_GWF-(3,1,5)
 Model                            168          8 -2.62545055E-05                              1_GWF-(3,1,5)
 Model                            169          8 -2.48418757E-05                              1_GWF-(3,1,5)
 Model                            170          8 -2.35052908E-05                              1_GWF-(3,1,5)
 Model                            171          8 -2.22406535E-05                              1_GWF-(3,1,5)
 Model                            172          8 -2.10440878E-05                              1_GWF-(3,1,5)
 Model                            173          8 -1.99119265E-05                              1_GWF-(3,1,5)
 Model                            174          8 -1.88407006E-05                              1_GWF-(3,1,5)
 Model                            175          8 -1.78271279E-05                              1_GWF-(3,1,5)
 Model                            176          8 -1.68681035E-05                              1_GWF-(3,1,5)
 Model                            177          8 -1.59606896E-05                              1_GWF-(3,1,5)
 Model                            178          8 -1.51021070E-05                              1_GWF-(3,1,5)
 Model                            179          8 -1.42897264E-05                              1_GWF-(3,1,5)
 Model                            180          8 -1.35210599E-05                              1_GWF-(3,1,5)
 Model                            181          8 -1.27937541E-05                              1_GWF-(3,1,5)
 Model                            182          8 -1.21055822E-05                              1_GWF-(3,1,5)
 Model                            183          8 -1.14544374E-05                              1_GWF-(3,1,5)
 Model                            184          7 -1.08383265E-05                              1_GWF-(3,1,5)
 Model                            185          7 -1.02553640E-05                              1_GWF-(3,1,5)
 Model                            186          7 -9.70376506E-06                              1_GWF-(3,1,5)
 Model                            187          7 -9.18184168E-06                              1_GWF-(3,1,5)
 Model                            188          7 -8.68799672E-06                              1_GWF-(3,1,5)
 Model                            189          7 -8.22071904E-06                              1_GWF-(3,1,5)
 Model                            190          7 -7.77857887E-06                              1_GWF-(3,1,5)
 Model                            191          7 -7.36022341E-06                              1_GWF-(3,1,5)
 Model                            192          6 -6.96437450E-06                              1_GWF-(3,1,5)
 Model                            193          6 -6.58981862E-06                              1_GWF-(3,1,5)
 Model                            194          6 -6.23540978E-06                              1_GWF-(3,1,5)
 Model                            195          6 -5.90006437E-06                              1_GWF-(3,1,5)
 Model                            196          6 -5.58275692E-06                              1_GWF-(3,1,5)
 Model                            197          6 -5.28251698E-06                              1_GWF-(3,1,5)
 Model                            198          6 -4.99842632E-06                              1_GWF-(3,1,5)
 Model                            199          6 -4.72961625E-06                              1_GWF-(3,1,6)
 Model                            200          6 -4.47526449E-06                              1_GWF-(3,1,6)
 Model                            201          6 -4.23459320E-06                              1_GWF-(3,1,6)
 Model                            202          6 -4.00686639E-06                              1_GWF-(3,1,6)
 Model                            203          6 -3.79138770E-06                              1_GWF-(3,1,6)
 Model                            204          6 -3.58749822E-06                              1_GWF-(3,1,6)
 Model                            205          6 -3.39457454E-06                              1_GWF-(3,1,6)
 Model                            206          6 -3.21202677E-06                              1_GWF-(3,1,6)
 Model                            207          6 -3.03929675E-06                              1_GWF-(3,1,6)
 Model                            208          6 -2.87585637E-06                              1_GWF-(3,1,6)
 Model                            209          6 -2.72120595E-06                              1_GWF-(3,1,6)
 Model                            210          6 -2.57487268E-06                              1_GWF-(3,1,6)
 Model                            211          6 -2.43640918E-06                              1_GWF-(3,1,6)
 Model                            212          6 -2.30539216E-06                              1_GWF-(3,1,6)
 Model                            213          6 -2.18142110E-06                              1_GWF-(3,1,6)
 Model                            214          6 -2.06411701E-06                              1_GWF-(3,1,6)
 Model                            215          6 -1.95312131E-06                              1_GWF-(3,1,6)
 Model                            216          6 -1.84809471E-06                              1_GWF-(3,1,6)
 Model                            217          6 -1.74871616E-06                              1_GWF-(3,1,6)
 Model                            218          6 -1.65468189E-06                              1_GWF-(3,1,6)
 Model                            219          6 -1.56570447E-06                              1_GWF-(3,1,6)
 Model                            220          6 -1.48151193E-06                              1_GWF-(3,1,6)
 Model                            221          6 -1.40184693E-06                              1_GWF-(3,1,6)
 Model                            222          6 -1.32646596E-06                              1_GWF-(3,1,6)
 Model                            223          6 -1.25513864E-06                              1_GWF-(3,1,6)
 Model                            224          6 -1.18764696E-06                              1_GWF-(3,1,6)
 Model                            225          6 -1.12378463E-06                              1_GWF-(3,1,6)
 Model                            226          6 -1.06335647E-06                              1_GWF-(3,1,6)
 Model                            227          6 -1.00617780E-06                              1_GWF-(3,1,6)
 Model                            228          6 -9.52073860E-07                              1_GWF-(3,1,6)
 Model                            229          6 -9.00879296E-07                              1_GWF-(3,1,6)
 Model                            230          6 -8.52437656E-07                              1_GWF-(3,1,6)
 Model                            231          5 -8.06607834E-07                              1_GWF-(3,1,1)
 Model                            232          5 -7.63232966E-07                              1_GWF-(3,1,3)
 Model                            233          5 -7.22192152E-07                              1_GWF-(3,1,4)
 Model                            234          5 -6.83358446E-07                              1_GWF-(3,1,5)
 Model                            235          5 -6.46613071E-07                              1_GWF-(3,1,5)
 Model                            236          5 -6.11843656E-07                              1_GWF-(3,1,5)
 Model                            237          5 -5.78943948E-07                              1_GWF-(3,1,6)
 Model                            238          5 -5.47813459E-07                              1_GWF-(3,1,6)
 Model                            239          5 -5.18356953E-07                              1_GWF-(3,1,6)
 Model                            240          5 -4.90484407E-07                              1_GWF-(3,1,6)
 Model                            241          5 -4.64110648E-07                              1_GWF-(3,1,6)
 Model                            242          5 -4.39155071E-07                              1_GWF-(3,1,6)
 Model                            243          5 -4.15541413E-07                              1_GWF-(3,1,6)
 Model                            244          5 -3.93197509E-07                              1_GWF-(3,1,6)
 Model                            245          5 -3.72055083E-07                              1_GWF-(3,1,6)
 Model                            246          5 -3.52049520E-07                              1_GWF-(3,1,6)
 Model                            247          5 -3.33119686E-07                              1_GWF-(3,1,6)
 Model                            248          5 -3.15207732E-07                              1_GWF-(3,1,6)
 Model                            249          5 -2.98258930E-07                              1_GWF-(3,1,6)
 Model                            250          5 -2.82221479E-07                              1_GWF-(3,1,6)
 Model                            251          5 -2.67046374E-07                              1_GWF-(3,1,6)
 Model                            252          5 -2.52687246E-07                              1_GWF-(3,1,6)
 Model                            253          5 -2.39100214E-07                              1_GWF-(3,1,6)
 Model                            254          5 -2.26243771E-07                              1_GWF-(3,1,6)
 Model                            255          5 -2.14078614E-07                              1_GWF-(3,1,6)
 Model                            256          5 -2.02567584E-07                              1_GWF-(3,1,7)
 Model                            257          5 -1.91675515E-07                              1_GWF-(3,1,7)
 Model                            258          5 -1.81369111E-07                              1_GWF-(3,1,7)
 Model                            259          5 -1.71616887E-07                              1_GWF-(3,1,7)
 Model                            260          5 -1.62389041E-07                              1_GWF-(3,1,7)
 Model                            261          5 -1.53657377E-07                              1_GWF-(3,1,7)
 Model                            262          5 -1.45395217E-07                              1_GWF-(3,1,7)
 Model                            263          5 -1.37577311E-07                              1_GWF-(3,1,7)
 Model                            264          5 -1.30179776E-07                              1_GWF-(3,1,7)
 Model                            265          5 -1.23180008E-07                              1_GWF-(3,1,7)
 Model                            266          5 -1.16556621E-07                              1_GWF-(3,1,7)
 Model                            267          5 -1.10289371E-07                              1_GWF-(3,1,7)
 Model                            268          5 -1.04359118E-07                              1_GWF-(3,1,7)
 Model                            269          5 -9.87477318E-08                              1_GWF-(3,1,7)
 Model                            270          5 -9.34380777E-08                              1_GWF-(3,1,8)
 Model                            271          5 -8.84139260E-08                              1_GWF-(3,1,8)
 Model                            272          5 -8.36599243E-08                              1_GWF-(3,1,8)
 Model                            273          5 -7.91615475E-08                              1_GWF-(3,1,8)
 Model                            274          5 -7.49050475E-08                              1_GWF-(3,1,8)
 Model                            275          4 -7.08776922E-08                              1_GWF-(3,1,7)
 Model                            276          4 -6.70665656E-08                              1_GWF-(3,1,8)
 Model                            277          4 -6.34603872E-08                              1_GWF-(3,1,8)
 Model                            278          4 -6.00481256E-08                              1_GWF-(3,1,8)
 Model                            279          4 -5.68193483E-08                              1_GWF-(3,1,8)
 Model                            280          4 -5.37641869E-08                              1_GWF-(3,1,8)
 Model                            281          4 -5.08733047E-08                              1_GWF-(3,1,8)
 Model                            282          4 -4.81378679E-08                              1_GWF-(3,1,8)
 Model                            283          4 -4.55495162E-08                              1_GWF-(3,1,8)
 Model                            284          4 -4.31003375E-08                              1_GWF-(3,1,8)
 Model                            285          4 -4.07828553E-08                              1_GWF-(3,1,8)
 Model                            286          4 -3.85899828E-08                              1_GWF-(3,1,8)
 Model                            287          4 -3.65150203E-08                              1_GWF-(3,1,9)
 Model                            288          4 -3.45516273E-08                              1_GWF-(3,1,9)
 Model                            289          4 -3.26938059E-08                              1_GWF-(3,1,9)
 Model                            290          4 -3.09358787E-08                              1_GWF-(3,1,9)
 Model                            291          4 -2.92724707E-08                              1_GWF-(3,1,9)
 Model                            292          4 -2.76985030E-08                              1_GWF-(3,1,9)
 Model                            293          4 -2.62091637E-08                              1_GWF-(3,1,8)
 Model                            294          4 -2.47999026E-08                              1_GWF-(3,1,9)
 Model                            295          3 -2.34690321E-08                              1_GWF-(3,1,1)
 Model                            296          3 -2.22062182E-08                              1_GWF-(3,1,1)
 Model                            297          3 -2.10114335E-08                             1_GWF-(3,1,10)
 Model                            298          3 -1.98806545E-08                              1_GWF-(3,2,7)
 Model                            299          3 -1.88124876E-08                              1_GWF-(3,1,9)
 Model                            300          3 -1.78007431E-08                              1_GWF-(3,1,8)
 Model                            301          3 -1.68434262E-08                              1_GWF-(3,1,8)
 Model                            302          3 -1.59376352E-08                              1_GWF-(3,1,8)
 Model                            303          3 -1.50805750E-08                              1_GWF-(3,1,7)
 Model                            304          3 -1.42696246E-08                              1_GWF-(3,1,8)
 Model                            305          3 -1.35022926E-08                              1_GWF-(3,1,8)
 Model                            306          3 -1.27762290E-08                              1_GWF-(3,1,8)
 Model                            307          3 -1.20892132E-08                              1_GWF-(3,1,8)
 Model                            308          3 -1.14391474E-08                              1_GWF-(3,1,8)
 Model                            309          3 -1.08240386E-08                              1_GWF-(3,1,8)
 Model                            310          3 -1.02420081E-08                              1_GWF-(3,1,8)
 Model                            311          3 -9.69127711E-09                              1_GWF-(3,1,8)
 Model                            312          3 -9.17016418E-09                              1_GWF-(3,1,8)
 Model                            313          3 -8.67707062E-09                              1_GWF-(3,1,8)
 Model                            314          3 -8.21049362E-09                              1_GWF-(3,1,8)
 Model                            315          3 -7.76900499E-09                              1_GWF-(3,1,8)
 Model                            316          3 -7.35125560E-09                              1_GWF-(3,1,8)
 Model                            317          3 -6.95597091E-09                              1_GWF-(3,1,8)
 Model                            318          3 -6.58193944E-09                              1_GWF-(3,1,8)
 Model                            319          3 -6.22802343E-09                              1_GWF-(3,1,8)
 Model                            320          3 -5.89313487E-09                              1_GWF-(3,1,8)
 Model                            321          3 -5.57625324E-09                              1_GWF-(3,1,8)
 Model                            322          3 -5.27641220E-09                              1_GWF-(3,1,8)
 Model                            323          3 -4.99268982E-09                              1_GWF-(3,1,8)
 Model                            324          3 -4.72422457E-09                              1_GWF-(3,1,8)
 Model                            325          2 -4.47126691E-09                              1_GWF-(3,1,9)
 Model                            326          3 -4.23007318E-09                              1_GWF-(3,2,8)
 Model                            327          2 -4.00355571E-09                              1_GWF-(3,1,9)
 Model                            328          3 -3.78764486E-09                              1_GWF-(3,2,7)
 Model                            329          2 -3.58423247E-09                              1_GWF-(3,1,9)
 Model                            330          3 -3.39127126E-09                              1_GWF-(3,2,6)
 Model                            331          2 -3.20903304E-09                              1_GWF-(3,1,8)
 Model                            332          3 -3.03635517E-09                              1_GWF-(3,2,6)
 Model                            333          2 -2.87308843E-09                              1_GWF-(3,1,7)
 Model                            334          3 -2.71855694E-09                              1_GWF-(3,2,6)
 Model                            335          2 -2.57229704E-09                              1_GWF-(3,1,7)
 Model                            336          2 -2.43414977E-09                              1_GWF-(3,1,8)
 Model                            337          2 -2.30289832E-09                              1_GWF-(3,2,7)
 Model                            338          2 -2.17896634E-09                              1_GWF-(3,1,8)
 Model                            339          2 -2.06178719E-09                              1_GWF-(3,2,6)
 Model                            340          2 -1.95076488E-09                              1_GWF-(3,2,6)
 Model                            341          2 -1.84585502E-09                              1_GWF-(3,2,6)
 Model                            342          2 -1.74650872E-09                              1_GWF-(3,2,6)
 Model                            343          2 -1.65253922E-09                              1_GWF-(3,3,6)
 Model                            344          2 -1.56362534E-09                              1_GWF-(3,3,6)
 Model                            345          2 -1.47947909E-09                              1_GWF-(3,3,6)
 Model                            346          2 -1.39986256E-09                              1_GWF-(3,3,6)
 Model                            347          2 -1.32451738E-09                              1_GWF-(3,3,6)
 Model                            348          2 -1.25322119E-09                              1_GWF-(3,3,6)
 Model                            349          2 -1.18575283E-09                              1_GWF-(3,3,6)
 Model                            350          2 -1.12190568E-09                              1_GWF-(3,3,6)
 Model                            351          2 -1.06148401E-09                              1_GWF-(3,3,6)
 Model                            352          2 -1.00429753E-09                              1_GWF-(3,3,6)
 Model                            353          1 -9.49950341E-10       *                      1_GWF-(3,1,7)
 Package                          353            -9.79700654E-10       *              1_GWF-CSUB-(418)-head
 ----------------------------------------------------------------------------------------------------------


 353 CALLS TO NUMERICAL SOLUTION IN TIME STEP 1 STRESS PERIOD 2
 2676 TOTAL ITERATIONS

    Solving:  Stress period:     2    Time step:     2


 SLN_1 OUTER ITERATION SUMMARY
 ----------------------------------------------------------------------------------------------------------
                                OUTER      INNER                    STEP   MAXIMUM CHANGE MODEL-(CELLID) OR
 OUTER ITERATION STEP       ITERATION  ITERATION  MAXIMUM CHANGE SUCCESS             MODEL-PACKAGE-(NUMBER)
 ----------------------------------------------------------------------------------------------------------
 Model                              1         15      -2.0419917                              1_GWF-(2,3,6)
 Model                              2         14     -0.38909161                              1_GWF-(3,3,7)
 Model                              3         14     -0.34210493                              1_GWF-(3,3,7)
 Model                              4         14     -0.31375271                              1_GWF-(3,2,9)
 Model                              5         14     -0.29539910                             1_GWF-(3,2,10)
 Model                              6         14     -0.27944195                             1_GWF-(3,1,10)
 Model                              7         14     -0.26436254                             1_GWF-(3,1,10)
 Model                              8         14     -0.24966949                             1_GWF-(3,1,10)
 Model                              9         14     -0.23558427                             1_GWF-(3,1,10)
 Model                             10         13     -0.22221501                             1_GWF-(3,1,10)
 Model                             11         13     -0.20960087                             1_GWF-(3,1,10)
 Model                             12         13     -0.19774063                             1_GWF-(3,1,10)
 Model                             13         13     -0.18661059                             1_GWF-(3,1,10)
 Model                             14         13     -0.17617539                             1_GWF-(3,1,10)
 Model                             15         13     -0.16639446                             1_GWF-(3,1,10)
 Model                             16         13     -0.15722582                             1_GWF-(3,1,10)
 Model                             17         13     -0.14862814                             1_GWF-(3,1,10)
 Model                             18         13     -0.14056192                             1_GWF-(3,1,10)
 Model                             19         13     -0.13298999                             1_GWF-(3,1,10)
 Model                             20         13     -0.12587772                             1_GWF-(3,1,10)
 Model                             21         13     -0.11919306                             1_GWF-(3,1,10)
 Model                             22         13     -0.11290642                             1_GWF-(3,1,10)
 Model                             23         13     -0.10699050                             1_GWF-(3,1,10)
 Model                             24         13     -0.10142018                             1_GWF-(3,1,10)
 Model                             25         13 -9.61722919E-02                             1_GWF-(3,1,10)
 Model                             26         13 -9.12254736E-02                             1_GWF-(3,1,10)
 Model                             27         13 -8.65600150E-02                             1_GWF-(3,1,10)
 Model                             28         13 -8.21577053E-02                             1_GWF-(3,1,10)
 Model                             29         13 -7.80017026E-02                             1_GWF-(3,1,10)
 Model                             30         13 -7.40764138E-02                             1_GWF-(3,1,10)
 Model                             31         13 -7.03673862E-02                             1_GWF-(3,1,10)
 Model                             32         13 -6.68612097E-02                             1_GWF-(3,1,10)
 Model                             33         13 -6.35454290E-02                             1_GWF-(3,1,10)
 Model                             34         13 -6.04084646E-02                             1_GWF-(3,1,10)
 Model                             35         13 -5.74395407E-02                             1_GWF-(3,1,10)
 Model                             36         13 -5.46286208E-02                             1_GWF-(3,1,10)
 Model                             37         13 -5.19663495E-02                             1_GWF-(3,1,10)
 Model                             38         13 -4.94439988E-02                             1_GWF-(3,1,10)
 Model                             39         13 -4.70534202E-02                             1_GWF-(3,1,10)
 Model                             40         13 -4.47870010E-02                             1_GWF-(3,1,10)
 Model                             41         13 -4.26376236E-02                             1_GWF-(3,1,10)
 Model                             42         13 -4.05986295E-02                             1_GWF-(3,1,10)
 Model                             43         13 -3.86637852E-02                             1_GWF-(3,1,10)
 Model                             44         13 -3.68272521E-02                             1_GWF-(3,1,10)
 Model                             45         13 -3.50349671E-02                              1_GWF-(3,1,1)
 Model                             46         13 -3.32735161E-02                              1_GWF-(3,1,1)
 Model                             47         13 -3.15368986E-02                              1_GWF-(3,1,1)
 Model                             48         13 -2.98402686E-02                              1_GWF-(3,1,1)
 Model                             49         13 -2.81996978E-02                              1_GWF-(3,1,1)
 Model                             50         13 -2.66270467E-02                              1_GWF-(3,1,1)
 Model                             51         13 -2.51292239E-02                              1_GWF-(3,1,1)
 Model                             52         13 -2.37091105E-02                              1_GWF-(3,1,1)
 Model                             53         12 -2.23667771E-02                              1_GWF-(3,1,1)
 Model                             54         12 -2.11005041E-02                              1_GWF-(3,1,1)
 Model                             55         12 -1.99073230E-02                              1_GWF-(3,1,1)
 Model                             56         12 -1.87819151E-02                              1_GWF-(3,1,1)
 Model                             57         12 -1.77196013E-02                              1_GWF-(3,1,1)
 Model                             58         12 -1.68451998E-02                              1_GWF-(3,7,1)
 Model                             59         12 -1.60625563E-02                              1_GWF-(3,8,1)
 Model                             60         12 -1.53384814E-02                              1_GWF-(3,8,1)
 Model                             61         12 -1.46507586E-02                              1_GWF-(3,9,1)
 Model                             62         12 -1.40034089E-02                             1_GWF-(3,10,1)
 Model                             63         12 -1.33860316E-02                             1_GWF-(3,10,1)
 Model                             64         12 -1.27926058E-02                             1_GWF-(3,10,1)
 Model                             65         12 -1.22224982E-02                             1_GWF-(3,10,1)
 Model                             66         12 -1.16750682E-02                             1_GWF-(3,10,1)
 Model                             67         12 -1.11496688E-02                             1_GWF-(3,10,1)
 Model                             68         12 -1.06456487E-02                             1_GWF-(3,10,1)
 Model                             69         12 -1.01623540E-02                             1_GWF-(3,10,1)
 Model                             70         12 -9.69913005E-03                             1_GWF-(3,10,1)
 Model                             71         12 -9.25532369E-03                             1_GWF-(3,10,1)
 Model                             72         12 -8.83028513E-03                             1_GWF-(3,10,1)
 Model                             73         12 -8.42336990E-03                             1_GWF-(3,10,1)
 Model                             74         12 -8.03394061E-03                             1_GWF-(3,10,1)
 Model                             75         12 -7.66136857E-03                             1_GWF-(3,10,1)
 Model                             76         12 -7.30503520E-03                             1_GWF-(3,10,1)
 Model                             77         12 -6.96433335E-03                             1_GWF-(3,10,1)
 Model                             78         12 -6.63866832E-03                             1_GWF-(3,10,1)
 Model                             79         12 -6.32745881E-03                             1_GWF-(3,10,1)
 Model                             80         12 -6.03013763E-03                             1_GWF-(3,10,1)
 Model                             81         12 -5.74615235E-03                             1_GWF-(3,10,1)
 Model                             82         12 -5.47496572E-03                             1_GWF-(3,10,1)
 Model                             83         12 -5.21605601E-03                             1_GWF-(3,10,1)
 Model                             84         12 -4.96891727E-03                             1_GWF-(3,10,1)
 Model                             85         11 -4.73305942E-03                             1_GWF-(3,10,1)
 Model                             86         11 -4.50800833E-03                             1_GWF-(3,10,1)
 Model                             87         11 -4.29330575E-03                             1_GWF-(3,10,1)
 Model                             88         11 -4.08850923E-03                             1_GWF-(3,10,1)
 Model                             89         11 -3.89319195E-03                             1_GWF-(3,10,1)
 Model                             90         11 -3.70694253E-03                             1_GWF-(3,10,1)
 Model                             91         11 -3.52936478E-03                             1_GWF-(3,10,1)
 Model                             92         11 -3.36007739E-03                             1_GWF-(3,10,1)
 Model                             93         11 -3.19871367E-03                             1_GWF-(3,10,1)
 Model                             94         11 -3.04492115E-03                             1_GWF-(3,10,1)
 Model                             95         11 -2.89836130E-03                             1_GWF-(3,10,1)
 Model                             96         11 -2.75870909E-03                             1_GWF-(3,10,1)
 Model                             97         11 -2.62565267E-03                             1_GWF-(3,10,1)
 Model                             98         11 -2.49889295E-03                             1_GWF-(3,10,1)
 Model                             99         11 -2.37814321E-03                             1_GWF-(3,10,1)
 Model                            100         11 -2.26312872E-03                             1_GWF-(3,10,1)
 Model                            101         11 -2.15358633E-03                             1_GWF-(3,10,1)
 Model                            102         11 -2.04926411E-03                             1_GWF-(3,10,1)
 Model                            103         11 -1.94992091E-03                             1_GWF-(3,10,1)
 Model                            104         11 -1.85532600E-03                             1_GWF-(3,10,1)
 Model                            105         11 -1.76525871E-03                             1_GWF-(3,10,1)
 Model                            106         11 -1.67950801E-03                             1_GWF-(3,10,1)
 Model                            107         10 -1.59787219E-03                             1_GWF-(3,10,1)
 Model                            108         10 -1.52015848E-03                             1_GWF-(3,10,1)
 Model                            109         10 -1.44618268E-03                             1_GWF-(3,10,1)
 Model                            110         10 -1.37576888E-03                             1_GWF-(3,10,1)
 Model                            111         10 -1.30874905E-03                             1_GWF-(3,10,1)
 Model                            112         10 -1.24496279E-03                             1_GWF-(3,10,1)
 Model                            113         10 -1.18425697E-03                             1_GWF-(3,10,1)
 Model                            114         10 -1.12648544E-03                             1_GWF-(3,10,1)
 Model                            115         10 -1.07150874E-03                             1_GWF-(3,10,1)
 Model                            116         10 -1.01919383E-03                             1_GWF-(3,10,1)
 Model                            117         10 -9.69413797E-04                             1_GWF-(3,10,1)
 Model                            118         10 -9.22047585E-04                             1_GWF-(3,10,1)
 Model                            119         10 -8.76979768E-04                             1_GWF-(3,10,1)
 Model                            120         10 -8.34100286E-04                             1_GWF-(3,10,1)
 Model                            121         10 -7.93304211E-04                             1_GWF-(3,10,1)
 Model                            122         10 -7.54491527E-04                             1_GWF-(3,10,1)
 Model                            123         10 -7.17566904E-04                             1_GWF-(3,10,1)
 Model                            124         10 -6.82439494E-04                             1_GWF-(3,10,1)
 Model                            125         10 -6.49022729E-04                             1_GWF-(3,10,1)
 Model                            126         10 -6.17234125E-04                             1_GWF-(3,10,1)
 Model                            127         10 -5.86995101E-04                             1_GWF-(3,10,1)
 Model                            128         10 -5.58230800E-04                             1_GWF-(3,10,1)
 Model                            129         10 -5.30869917E-04                             1_GWF-(3,10,1)
 Model                            130         10 -5.04844539E-04                             1_GWF-(3,10,1)
 Model                            131         10 -4.80089988E-04                             1_GWF-(3,10,1)
 Model                            132         10 -4.56544671E-04                             1_GWF-(3,10,1)
 Model                            133         10 -4.34149937E-04                             1_GWF-(3,10,1)
 Model                            134         10 -4.12849944E-04                             1_GWF-(3,10,1)
 Model                            135         10 -3.92591521E-04                             1_GWF-(3,10,1)
 Model                            136         10 -3.73324050E-04                             1_GWF-(3,10,1)
 Model                            137         10 -3.54999346E-04                             1_GWF-(3,10,1)
 Model                            138         10 -3.37571536E-04                             1_GWF-(3,10,1)
 Model                            139         10 -3.20996959E-04                             1_GWF-(3,10,1)
 Model                            140         10 -3.05234057E-04                             1_GWF-(3,10,1)
 Model                            141         10 -2.90243276E-04                             1_GWF-(3,10,1)
 Model                            142         10 -2.75986971E-04                             1_GWF-(3,10,1)
 Model                            143         10 -2.62429317E-04                             1_GWF-(3,10,1)
 Model                            144         10 -2.49536222E-04                             1_GWF-(3,10,1)
 Model                            145         10 -2.37275244E-04                             1_GWF-(3,10,1)
 Model                            146         10 -2.25615512E-04                             1_GWF-(3,10,1)
 Model                            147         10 -2.14527652E-04                             1_GWF-(3,10,1)
 Model                            148         10 -2.03983715E-04                             1_GWF-(3,10,1)
 Model                            149         10 -1.93957109E-04                             1_GWF-(3,10,1)
 Model                            150         10 -1.84422533E-04                             1_GWF-(3,10,1)
 Model                            151         10 -1.75355918E-04                             1_GWF-(3,10,1)
 Model                            152         10 -1.66734363E-04                             1_GWF-(3,10,1)
 Model                            153         10 -1.58536083E-04                             1_GWF-(3,10,1)
 Model                            154          9 -1.50740355E-04                             1_GWF-(3,10,1)
 Model                            155          9 -1.43327459E-04                             1_GWF-(3,10,1)
 Model                            156          9 -1.36278645E-04                             1_GWF-(3,10,1)
 Model                            157          9 -1.29576072E-04                             1_GWF-(3,10,1)
 Model                            158          9 -1.23202771E-04                             1_GWF-(3,10,1)
 Model                            159          9 -1.17142601E-04                             1_GWF-(3,10,1)
 Model                            160          9 -1.11380209E-04                             1_GWF-(3,10,1)
 Model                            161          9 -1.05900991E-04                             1_GWF-(3,10,1)
 Model                            162          9 -1.00691058E-04                             1_GWF-(3,10,1)
 Model                            163          9 -9.57371982E-05                             1_GWF-(3,10,1)
 Model                            164          9 -9.10268480E-05                             1_GWF-(3,10,1)
 Model                            165          9 -8.65480566E-05                             1_GWF-(3,10,1)
 Model                            166          9 -8.22894584E-05                             1_GWF-(3,10,1)
 Model                            167          9 -7.82402441E-05                             1_GWF-(3,10,1)
 Model                            168          8 -7.43901437E-05                             1_GWF-(3,10,1)
 Model                            169          8 -7.07293566E-05                             1_GWF-(3,10,1)
 Model                            170          8 -6.72485995E-05                             1_GWF-(3,10,1)
 Model                            171          8 -6.39390295E-05                             1_GWF-(3,10,1)
 Model                            172          8 -6.07922375E-05                             1_GWF-(3,10,1)
 Model                            173          8 -5.78002262E-05                             1_GWF-(3,10,1)
 Model                            174          8 -5.49553909E-05                             1_GWF-(3,10,1)
 Model                            175          8 -5.22504993E-05                             1_GWF-(3,10,1)
 Model                            176          8 -4.96786741E-05                             1_GWF-(3,10,1)
 Model                            177          8 -4.72333753E-05                             1_GWF-(3,10,1)
 Model                            178          8 -4.49083837E-05                             1_GWF-(3,10,1)
 Model                            179          8 -4.26977855E-05                             1_GWF-(3,10,1)
 Model                            180          8 -4.05959570E-05                             1_GWF-(3,10,1)
 Model                            181          8 -3.85975503E-05                             1_GWF-(3,10,1)
 Model                            182          8 -3.66974806E-05                             1_GWF-(3,10,1)
 Model                            183          8 -3.48909123E-05                             1_GWF-(3,10,1)
 Model                            184          8 -3.31732473E-05                             1_GWF-(3,10,1)
 Model                            185          8 -3.15401137E-05                             1_GWF-(3,10,1)
 Model                            186          8 -2.99873538E-05                             1_GWF-(3,10,1)
 Model                            187          8 -2.85110147E-05                             1_GWF-(3,10,1)
 Model                            188          8 -2.71073372E-05                             1_GWF-(3,10,1)
 Model                            189          8 -2.57727472E-05                             1_GWF-(3,10,1)
 Model                            190          8 -2.45038460E-05                             1_GWF-(3,10,1)
 Model                            191          8 -2.32974020E-05                             1_GWF-(3,10,1)
 Model                            192          8 -2.21503424E-05                             1_GWF-(3,10,1)
 Model                            193          8 -2.10597456E-05                             1_GWF-(3,10,1)
 Model                            194          8 -2.00228334E-05                             1_GWF-(3,10,1)
 Model                            195          8 -1.90369643E-05                             1_GWF-(3,10,1)
 Model                            196          8 -1.80996267E-05                             1_GWF-(3,10,1)
 Model                            197          8 -1.72084324E-05                             1_GWF-(3,10,1)
 Model                            198          8 -1.63611106E-05                             1_GWF-(3,10,1)
 Model                            199          8 -1.55555025E-05                             1_GWF-(3,10,1)
 Model                            200          8 -1.47895550E-05                             1_GWF-(3,10,1)
 Model                            201          8 -1.40613162E-05                             1_GWF-(3,10,1)
 Model                            202          8 -1.33689304E-05                             1_GWF-(3,10,1)
 Model                            203          8 -1.27106328E-05                             1_GWF-(3,10,1)
 Model                            204          8 -1.20847457E-05                             1_GWF-(3,10,1)
 Model                            205          8 -1.14896738E-05                             1_GWF-(3,10,1)
 Model                            206          8 -1.09239004E-05                             1_GWF-(3,10,1)
 Model                            207          8 -1.03859832E-05                             1_GWF-(3,10,1)
 Model                            208          8 -9.87455106E-06                             1_GWF-(3,10,1)
 Model                            209          8 -9.38830025E-06                             1_GWF-(3,10,1)
 Model                            210          8 -8.92599119E-06                             1_GWF-(3,10,1)
 Model                            211          8 -8.48644528E-06                             1_GWF-(3,10,1)
 Model                            212          8 -8.06854192E-06                             1_GWF-(3,10,1)
 Model                            213          8 -7.67121566E-06                             1_GWF-(3,10,1)
 Model                            214          8 -7.29345351E-06                             1_GWF-(3,10,1)
 Model                            215          8 -6.93429229E-06                             1_GWF-(3,10,1)
 Model                            216          8 -6.59281624E-06                             1_GWF-(3,10,1)
 Model                            217          7 -6.26815740E-06                             1_GWF-(3,10,1)
 Model                            218          7 -5.95948196E-06                             1_GWF-(3,10,1)
 Model                            219          7 -5.66600625E-06                             1_GWF-(3,10,1)
 Model                            220          7 -5.38698186E-06                             1_GWF-(3,10,1)
 Model                            221          7 -5.12169724E-06                             1_GWF-(3,10,1)
 Model                            222          7 -4.86947590E-06                             1_GWF-(3,10,1)
 Model                            223          7 -4.62967463E-06                             1_GWF-(3,10,1)
 Model                            224          7 -4.40168190E-06                             1_GWF-(3,10,1)
 Model                            225          7 -4.18491629E-06                             1_GWF-(3,10,1)
 Model                            226          7 -3.97882497E-06                             1_GWF-(3,10,1)
 Model                            227          7 -3.78288236E-06                             1_GWF-(3,10,1)
 Model                            228          7 -3.59658875E-06                             1_GWF-(3,10,1)
 Model                            229          7 -3.41946901E-06                             1_GWF-(3,10,1)
 Model                            230          7 -3.25107142E-06                             1_GWF-(3,10,1)
 Model                            231          7 -3.09096650E-06                             1_GWF-(3,10,1)
 Model                            232          6 -2.93875729E-06                             1_GWF-(3,10,1)
 Model                            233          6 -2.79403007E-06                             1_GWF-(3,10,1)
 Model                            234          6 -2.65643048E-06                             1_GWF-(3,10,1)
 Model                            235          6 -2.52560730E-06                             1_GWF-(3,10,1)
 Model                            236          6 -2.40122678E-06                             1_GWF-(3,10,1)
 Model                            237          6 -2.28297163E-06                             1_GWF-(3,10,1)
 Model                            238          6 -2.17054022E-06                             1_GWF-(3,10,1)
 Model                            239          6 -2.06364574E-06                             1_GWF-(3,10,1)
 Model                            240          6 -1.96201552E-06                             1_GWF-(3,10,1)
 Model                            241          6 -1.86539030E-06                             1_GWF-(3,10,1)
 Model                            242          6 -1.77352363E-06                             1_GWF-(3,10,1)
 Model                            243          6 -1.68618113E-06                             1_GWF-(3,10,1)
 Model                            244          6 -1.60314003E-06                             1_GWF-(3,10,1)
 Model                            245          6 -1.52418848E-06                             1_GWF-(3,10,1)
 Model                            246          6 -1.44912510E-06                             1_GWF-(3,10,1)
 Model                            247          6 -1.37775840E-06                             1_GWF-(3,10,1)
 Model                            248          6 -1.30990633E-06                             1_GWF-(3,10,1)
 Model                            249          6 -1.24539580E-06                             1_GWF-(3,10,1)
 Model                            250          6 -1.18406227E-06                             1_GWF-(3,10,1)
 Model                            251          6 -1.12574927E-06                             1_GWF-(3,10,1)
 Model                            252          6 -1.07030805E-06                             1_GWF-(3,10,1)
 Model                            253          6 -1.01759718E-06                             1_GWF-(3,10,1)
 Model                            254          6 -9.67482199E-07                             1_GWF-(3,10,1)
 Model                            255          6 -9.19835276E-07                             1_GWF-(3,10,1)
 Model                            256          6 -8.74534860E-07                             1_GWF-(3,10,1)
 Model                            257          6 -8.31465395E-07                             1_GWF-(3,10,1)
[...]
 Model                            129          2 -2.86462409E-09                              1_GWF-(1,1,3)
 Model                            130          3 -2.60757460E-09                              1_GWF-(1,1,1)
 Model                            131          2 -2.35987230E-09                              1_GWF-(1,1,3)
 Model                            132          3 -2.14828333E-09                              1_GWF-(1,1,1)
 Model                            133          2 -1.94378202E-09                              1_GWF-(1,1,3)
 Model                            134          3 -1.76985182E-09                              1_GWF-(1,1,1)
 Model                            135          2 -1.60086699E-09                              1_GWF-(1,1,3)
 Model                            136          2 -1.45324464E-09                             1_GWF-(1,1,10)
 Model                            137          2 -1.32005695E-09                              1_GWF-(1,1,1)
 Model                            138          2 -1.19739596E-09                              1_GWF-(1,1,1)
 Model                            139          2 -1.08685327E-09                              1_GWF-(1,1,1)
 Model                            140          1 -9.77035342E-10       *                      1_GWF-(1,1,2)
 Package                          140            -1.07210951E-09                      1_GWF-CSUB-(297)-head
 Model                            141          3 -8.98978669E-10       *                      1_GWF-(1,1,1)
 Package                          141            -9.63780167E-10       *              1_GWF-CSUB-(298)-head
 ----------------------------------------------------------------------------------------------------------


 141 CALLS TO NUMERICAL SOLUTION IN TIME STEP 5 STRESS PERIOD 31
 929 TOTAL ITERATIONS

    Solving:  Stress period:    31    Time step:     6


 SLN_1 OUTER ITERATION SUMMARY
 ----------------------------------------------------------------------------------------------------------
                                OUTER      INNER                    STEP   MAXIMUM CHANGE MODEL-(CELLID) OR
 OUTER ITERATION STEP       ITERATION  ITERATION  MAXIMUM CHANGE SUCCESS             MODEL-PACKAGE-(NUMBER)
 ----------------------------------------------------------------------------------------------------------
 Model                              1         13 -5.93216084E-02                              1_GWF-(2,3,6)
 Model                              2         13 -3.39440355E-02                              1_GWF-(3,1,1)
 Model                              3         13 -2.17495883E-02                              1_GWF-(3,1,1)
 Model                              4         12 -1.39363620E-02                              1_GWF-(3,1,1)
 Model                              5         12 -8.93017910E-03                              1_GWF-(3,1,1)
 Model                              6         12 -5.72251549E-03                              1_GWF-(3,1,1)
 Model                              7         11 -3.66720885E-03                              1_GWF-(3,1,1)
 Model                              8         11 -2.35025122E-03                              1_GWF-(3,1,1)
 Model                              9         11 -1.50637791E-03                              1_GWF-(3,1,1)
 Model                             10         11 -9.65627570E-04                              1_GWF-(3,1,1)
 Model                             11         11 -6.19102023E-04                              1_GWF-(3,1,1)
 Model                             12         11 -3.97027532E-04                              1_GWF-(3,1,1)
 Model                             13         10 -2.96232192E-04                              1_GWF-(1,1,1)
 Model                             14         10 -2.70287832E-04                              1_GWF-(1,1,1)
 Model                             15         10 -2.46622521E-04                              1_GWF-(1,1,1)
 Model                             16         10 -2.25040360E-04                              1_GWF-(1,1,1)
 Model                             17         10 -2.05358201E-04                              1_GWF-(1,1,1)
 Model                             18         10 -1.87407348E-04                              1_GWF-(1,1,1)
 Model                             19         10 -1.71033619E-04                              1_GWF-(1,1,1)
 Model                             20         10 -1.56096624E-04                              1_GWF-(1,1,1)
 Model                             21         10 -1.42468742E-04                              1_GWF-(1,1,1)
 Model                             22         10 -1.30034001E-04                              1_GWF-(1,1,1)
 Model                             23         10 -1.18686992E-04                              1_GWF-(1,1,1)
 Model                             24         10 -1.08331864E-04                              1_GWF-(1,1,1)
 Model                             25         10 -9.88814006E-05                              1_GWF-(1,1,1)
 Model                             26         10 -9.02562008E-05                              1_GWF-(1,1,1)
 Model                             27         10 -8.23839389E-05                              1_GWF-(1,1,1)
 Model                             28          9 -7.51987059E-05                              1_GWF-(1,1,1)
 Model                             29          9 -6.86404155E-05                              1_GWF-(1,1,1)
 Model                             30          9 -6.26542778E-05                              1_GWF-(1,1,1)
 Model                             31          9 -5.71903180E-05                              1_GWF-(1,1,1)
 Model                             32          9 -5.22029450E-05                              1_GWF-(1,1,1)
 Model                             33          9 -4.76505612E-05                              1_GWF-(1,1,1)
 Model                             34          9 -4.34952089E-05                              1_GWF-(1,1,1)
 Model                             35          9 -3.97022486E-05                              1_GWF-(1,1,1)
 Model                             36          9 -3.62400672E-05                              1_GWF-(1,1,1)
 Model                             37          9 -3.30798123E-05                              1_GWF-(1,1,1)
 Model                             38          9 -3.01951498E-05                              1_GWF-(1,1,1)
 Model                             39          9 -2.75620440E-05                              1_GWF-(1,1,1)
 Model                             40          9 -2.51585561E-05                              1_GWF-(1,1,1)
 Model                             41          9 -2.29646614E-05                              1_GWF-(1,1,1)
 Model                             42          9 -2.09620819E-05                              1_GWF-(1,1,1)
 Model                             43          9 -1.91341335E-05                              1_GWF-(1,1,1)
 Model                             44          9 -1.74655877E-05                              1_GWF-(1,1,1)
 Model                             45          9 -1.59425439E-05                              1_GWF-(1,1,1)
 Model                             46          9 -1.45523136E-05                              1_GWF-(1,1,1)
 Model                             47          8 -1.32833155E-05                              1_GWF-(1,1,1)
 Model                             48          8 -1.21249765E-05                              1_GWF-(1,1,1)
 Model                             49          8 -1.10676480E-05                              1_GWF-(1,1,1)
 Model                             50          8 -1.01025215E-05                              1_GWF-(1,1,1)
 Model                             51          8 -9.22155647E-06                              1_GWF-(1,1,1)
 Model                             52          8 -8.41741378E-06                              1_GWF-(1,1,1)
 Model                             53          8 -7.68339432E-06                              1_GWF-(1,1,1)
 Model                             54          8 -7.01338316E-06                              1_GWF-(1,1,1)
 Model                             55          8 -6.40179863E-06                              1_GWF-(1,1,1)
 Model                             56          8 -5.84354578E-06                              1_GWF-(1,1,1)
 Model                             57          8 -5.33397395E-06                              1_GWF-(1,1,1)
 Model                             58          8 -4.86883804E-06                              1_GWF-(1,1,1)
 Model                             59          8 -4.44426312E-06                              1_GWF-(1,1,1)
 Model                             60          8 -4.05671217E-06                              1_GWF-(1,1,1)
 Model                             61          8 -3.70295663E-06                              1_GWF-(1,1,1)
 Model                             62          7 -3.38005448E-06                              1_GWF-(1,1,1)
 Model                             63          7 -3.08529924E-06                              1_GWF-(1,1,1)
 Model                             64          7 -2.81625254E-06                              1_GWF-(1,1,1)
 Model                             65          7 -2.57066851E-06                              1_GWF-(1,1,1)
 Model                             66          7 -2.34650008E-06                              1_GWF-(1,1,1)
 Model                             67          7 -2.14187958E-06                              1_GWF-(1,1,1)
 Model                             68          7 -1.95510242E-06                              1_GWF-(1,1,1)
 Model                             69          7 -1.78461260E-06                              1_GWF-(1,1,1)
 Model                             70          7 -1.62898988E-06                              1_GWF-(1,1,1)
 Model                             71          7 -1.48693782E-06                              1_GWF-(1,1,1)
 Model                             72          7 -1.35727302E-06                              1_GWF-(1,1,1)
 Model                             73          7 -1.23891531E-06                              1_GWF-(1,1,1)
 Model                             74          7 -1.13087867E-06                              1_GWF-(1,1,1)
 Model                             75          7 -1.03226309E-06                              1_GWF-(1,1,1)
 Model                             76          7 -9.42247038E-07                              1_GWF-(1,1,1)
 Model                             77          7 -8.60080615E-07                              1_GWF-(1,1,1)
 Model                             78          7 -7.85079330E-07                              1_GWF-(1,1,1)
 Model                             79          7 -7.16618302E-07                              1_GWF-(1,1,1)
 Model                             80          7 -6.54127287E-07                              1_GWF-(1,1,1)
 Model                             81          7 -5.97085670E-07                              1_GWF-(1,1,1)
 Model                             82          6 -5.45013066E-07                              1_GWF-(1,1,1)
 Model                             83          6 -4.97488795E-07                              1_GWF-(1,1,1)
 Model                             84          6 -4.54107763E-07                              1_GWF-(1,1,1)
 Model                             85          6 -4.14508992E-07                              1_GWF-(1,1,1)
 Model                             86          6 -3.78362998E-07                              1_GWF-(1,1,1)
 Model                             87          6 -3.45368871E-07                              1_GWF-(1,1,1)
 Model                             88          6 -3.15251853E-07                              1_GWF-(1,1,1)
 Model                             89          6 -2.87761093E-07                              1_GWF-(1,1,1)
 Model                             90          6 -2.62667594E-07                              1_GWF-(1,1,1)
 Model                             91          6 -2.39762343E-07                              1_GWF-(1,1,1)
 Model                             92          6 -2.18854517E-07                              1_GWF-(1,1,1)
 Model                             93          6 -1.99769950E-07                              1_GWF-(1,1,1)
 Model                             94          6 -1.82349623E-07                              1_GWF-(1,1,1)
 Model                             95          6 -1.66448459E-07                              1_GWF-(1,1,1)
 Model                             96          6 -1.51933929E-07                              1_GWF-(1,1,1)
 Model                             97          6 -1.38685134E-07                              1_GWF-(1,1,1)
 Model                             98          6 -1.26591686E-07                              1_GWF-(1,1,1)
 Model                             99          6 -1.15552794E-07                              1_GWF-(1,1,1)
 Model                            100          5 -1.05470043E-07                              1_GWF-(1,1,1)
 Model                            101          5 -9.62769668E-08                              1_GWF-(1,1,1)
 Model                            102          5 -8.78833575E-08                              1_GWF-(1,1,1)
 Model                            103          5 -8.02205236E-08                              1_GWF-(1,1,1)
 Model                            104          5 -7.32253831E-08                              1_GWF-(1,1,1)
 Model                            105          5 -6.68400482E-08                              1_GWF-(1,1,1)
 Model                            106          5 -6.10114412E-08                              1_GWF-(1,1,1)
 Model                            107          5 -5.56910926E-08                              1_GWF-(1,1,1)
 Model                            108          5 -5.08346538E-08                              1_GWF-(1,1,1)
 Model                            109          5 -4.64017553E-08                              1_GWF-(1,1,1)
 Model                            110          5 -4.23554027E-08                              1_GWF-(1,1,1)
 Model                            111          5 -3.86619199E-08                              1_GWF-(1,1,1)
 Model                            112          5 -3.52905545E-08                              1_GWF-(1,1,1)
 Model                            113          5 -3.22132010E-08                              1_GWF-(1,1,1)
 Model                            114          5 -2.94042088E-08                              1_GWF-(1,1,1)
 Model                            115          5 -2.68401763E-08                              1_GWF-(1,1,1)
 Model                            116          5 -2.44997409E-08                              1_GWF-(1,1,1)
 Model                            117          4 -2.23586802E-08                              1_GWF-(1,1,1)
 Model                            118          4 -2.04126813E-08                              1_GWF-(1,1,1)
 Model                            119          4 -1.86340188E-08                              1_GWF-(1,1,1)
 Model                            120          4 -1.70095227E-08                              1_GWF-(1,1,1)
 Model                            121          4 -1.55263464E-08                              1_GWF-(1,1,1)
 Model                            122          4 -1.41723682E-08                              1_GWF-(1,1,1)
 Model                            123          4 -1.29364253E-08                              1_GWF-(1,1,1)
 Model                            124          4 -1.18082326E-08                              1_GWF-(1,1,1)
 Model                            125          4 -1.07784501E-08                              1_GWF-(1,1,1)
 Model                            126          4 -9.83845183E-09                              1_GWF-(1,1,1)
 Model                            127          4 -8.98045371E-09                              1_GWF-(1,1,1)
 Model                            128          4 -8.19725798E-09                              1_GWF-(1,1,1)
 Model                            129          3 -7.49051665E-09                             1_GWF-(1,1,10)
 Model                            130          3 -6.83078838E-09                              1_GWF-(1,1,2)
 Model                            131          3 -6.23593266E-09                              1_GWF-(1,1,2)
 Model                            132          4 -5.69750114E-09                              1_GWF-(1,1,1)
 Model                            133          3 -5.19177945E-09                              1_GWF-(1,1,1)
 Model                            134          3 -4.74143391E-09                              1_GWF-(1,1,1)
 Model                            135          2 -4.32501679E-09                              1_GWF-(1,1,4)
 Model                            136          3 -3.95835187E-09                              1_GWF-(1,1,1)
 Model                            137          3 -3.60941144E-09                              1_GWF-(1,1,1)
 Model                            138          2 -3.29043104E-09                              1_GWF-(1,1,2)
 Model                            139          3 -3.00659053E-09                              1_GWF-(1,1,1)
 Model                            140          2 -2.73882605E-09                              1_GWF-(1,1,3)
 Model                            141          3 -2.50825138E-09                              1_GWF-(1,1,1)
 Model                            142          2 -2.28250840E-09                              1_GWF-(1,1,3)
 Model                            143          3 -2.09009698E-09                              1_GWF-(1,1,1)
 Model                            144          2 -1.90140881E-09                              1_GWF-(1,1,3)
 Model                            145          3 -1.74127379E-09                              1_GWF-(1,1,1)
 Model                            146          2 -1.58354752E-09                              1_GWF-(1,1,3)
 Model                            147          2 -1.44575552E-09                             1_GWF-(1,1,10)
 Model                            148          2 -1.32040867E-09                              1_GWF-(1,1,1)
 Model                            149          2 -1.20448718E-09                              1_GWF-(1,1,1)
 Model                            150          2 -1.09937304E-09                              1_GWF-(1,1,1)
 Model                            151          1 -9.93509275E-10       *                      1_GWF-(1,1,2)
 Package                          151            -1.08744658E-09                      1_GWF-CSUB-(297)-head
 Model                            152          3 -9.19854415E-10       *                      1_GWF-(1,1,1)
 Package                          152            -9.82733894E-10       *              1_GWF-CSUB-(298)-head
 ----------------------------------------------------------------------------------------------------------


 152 CALLS TO NUMERICAL SOLUTION IN TIME STEP 6 STRESS PERIOD 31
 1024 TOTAL ITERATIONS


 Solution SLN_1 summary
 ----------------------------------------------------------------------
 Total formulate time:  26.170432000000368 seconds
 Total solution time:   1.3760359999998357 seconds


 MEMORY MANAGER TOTAL STORAGE BY DATA TYPE, IN MEGABYTES
 -------------------------------
                    ALLOCATED   
 DATA TYPE           MEMORY     
 -------------------------------
 Character        8.38100000E-03
 Logical          4.00000000E-05
 Integer          0.11071200    
 Real             1.0035120     
 -------------------------------
 Total            1.1226450     
 Virtual          0.0000000     
 -------------------------------



 Run end date and time (yyyy/mm/dd hh:mm:ss): 2023/10/30  9:03:14
 Elapsed run time: 28.529 Seconds
 Normal termination of simulation.
